geometry optimzed in LAMMPS
_audit_creation_date              2020-11-30 
_audit_creation_method            'lammps2cif' 
_symmetry_space_group_name_H-M    'P1' 
_symmetry_Int_Tables_number       1 
_symmetry_cell_setting            triclinic 
loop_ 
_symmetry_equiv_pos_as_xyz 
  x,y,z 
_cell_length_a                    38.28009451 
_cell_length_b                    38.172422323353956 
_cell_length_c                    38.93572688560111 
_cell_angle_alpha                 91.11957534612496 
_cell_angle_beta                  89.76749644332114 
_cell_angle_gamma                 89.97685927176293 
loop_ 
_atom_site_label 
_atom_site_type_symbol 
_atom_site_fract_x 
_atom_site_fract_y 
_atom_site_fract_z 
_atom_site_charge 
C1          C  0.42744381  0.56496201  0.42828353     0.42200
N2          N  0.46744066  0.55028260  0.46356956     0.01100
C3          C  0.56571232  0.39754671  0.45962423    -0.06800
H4          H  0.43451441  0.37689019  0.47453391     0.06600
C5          C  0.43905775  0.44643071  0.58871950    -0.07100
Co6        Co  0.50445673  0.48496958  0.44045547     0.74200
N7          N  0.46545072  0.42318620  0.46618616    -0.26300
Co8        Co  0.50288198  0.42358390  0.50465562     0.74100
C9          C  0.42305959  0.41353771  0.57728660     0.42300
N10         N  0.46590571  0.53062600  0.56492581     0.00700
N11         N  0.46432199  0.42669857  0.54251712     0.00800
N12         N  0.56562732  0.43820275  0.41818705    -0.47200
H13         H  0.43774555  0.51623887  0.39377076     0.06600
N14         N  0.46558863  0.44673900  0.44182593     0.01100
N15         N  0.54048943  0.42546785  0.54313686     0.00800
C16         C  0.58196385  0.41204410  0.57755994     0.42400
N17         N  0.46679396  0.55384570  0.54027663    -0.25800
C18         C  0.56910986  0.52860526  0.41809273    -0.06700
N19         N  0.44396547  0.57483210  0.45745941    -0.46900
N20         N  0.56462949  0.40151092  0.54902969    -0.47100
C21         C  0.58613798  0.56069384  0.43038747     0.42200
N22         N  0.54179585  0.44526828  0.44204118     0.01100
N23         N  0.54274898  0.55181990  0.54036361    -0.25800
N24         N  0.46741591  0.52488341  0.44008610    -0.26300
N25         N  0.54197155  0.52872492  0.56510740     0.00700
H26         H  0.57473418  0.59719578  0.53146152     0.06600
H27         H  0.57083755  0.46087916  0.61187178     0.06600
N28         N  0.54114383  0.42179879  0.46645333    -0.26300
N29         N  0.46445467  0.45229705  0.56581207    -0.26000
N30         N  0.54349602  0.54865039  0.46401113     0.01100
C31         C  0.42382017  0.41186038  0.42823602     0.42500
C32         C  0.44282492  0.57863766  0.54712952    -0.07200
N33         N  0.54038372  0.45097641  0.56645488    -0.26000
H34         H  0.43404612  0.46193699  0.61175596     0.06600
N35         N  0.44133553  0.44067695  0.41828452    -0.47200
H36         H  0.43912804  0.60221298  0.53262012     0.06600
C37         C  0.58463343  0.56267349  0.57833169     0.42300
C38         C  0.44280053  0.53168153  0.41680458    -0.06700
Co39       Co  0.50508437  0.55179700  0.50199457     0.73800
N40         N  0.44277696  0.53871166  0.58925522    -0.46900
C41         C  0.58229520  0.40878548  0.42774908     0.42600
N42         N  0.56840027  0.57195365  0.45853949    -0.46900
Co43       Co  0.50308718  0.49066889  0.56625465     0.73900
C44         C  0.56570939  0.44494260  0.58919750    -0.07200
C45         C  0.44005544  0.39992406  0.45971524    -0.06800
N46         N  0.54318462  0.52320377  0.44059491    -0.26300
N47         N  0.44023213  0.40270692  0.54867622    -0.47100
H48         H  0.56984841  0.37401334  0.47406834     0.06600
C49         C  0.56884216  0.57439253  0.54647515    -0.07200
Cl50       Cl  0.50380215  0.48775434  0.50332912    -0.50200
C51         C  0.42656941  0.56833631  0.57945078     0.42300
H52         H  0.57421623  0.51292366  0.39519437     0.06600
N53         N  0.56612596  0.53468285  0.58877063    -0.46900
C54         C  0.08080121  0.43751930  0.89920243     0.42200
N55         N  0.06677985  0.47329218  0.94025865     0.01100
C56         C  0.91941469  0.47040120  0.04372944    -0.06800
H57         H  0.89155162  0.48847692  0.91827008     0.06600
C58         C  0.95880238  0.60565674  0.92477253    -0.07100
Co59       Co  0.00330527  0.45016544  0.97832641     0.74200
N60         N  0.93984123  0.47883637  0.94469648    -0.26300
Co61       Co  0.94213224  0.51728209  0.98335410     0.74100
C62         C  0.92405428  0.59563814  0.91198239     0.42300
N63         N  0.04685687  0.57701944  0.94412411     0.00700
N64         N  0.94222003  0.55718143  0.94750543     0.00800
N65         N  0.95868683  0.42626012  0.03901480    -0.47200
H66         H  0.03276401  0.40288962  0.90942499     0.06600
N67         N  0.96302819  0.45326371  0.94255253     0.01100
N68         N  0.94564595  0.55558737  0.02204197     0.00800
C69         C  0.93415908  0.58996666  0.06487551     0.42400
N70         N  0.06974944  0.55116523  0.94321405    -0.25800
C71         C  0.05139229  0.42277000  0.03627790    -0.06700
N72         N  0.09128470  0.46628361  0.91705148    -0.46900
N73         N  0.92283960  0.56138723  0.04719642    -0.47100
C74         C  0.08511361  0.43299281  0.05080026     0.42200
N75         N  0.96565706  0.45157424  0.01719589     0.01100
N76         N  0.07161973  0.55037451  0.01756512    -0.25800
N77         N  0.04128415  0.45003729  0.93972653    -0.26300
N78         N  0.04852519  0.57607184  0.01881983     0.00700
H79         H  0.11914825  0.54096661  0.04549364     0.06600
H80         H  0.98137278  0.62521137  0.05267425     0.06600
N81         N  0.94271407  0.47736848  0.01907331    -0.26300
N82         N  0.96754552  0.58064061  0.94699568    -0.26000
N83         N  0.06886418  0.47161803  0.01485501     0.01100
C84         C  0.92455457  0.43961277  0.90467623     0.42500
C85         C  0.09361377  0.55742339  0.91897202    -0.07200
N86         N  0.97081136  0.57918601  0.02151985    -0.26000
H87         H  0.97388181  0.62902407  0.92011038     0.06600
N88         N  0.95470164  0.42905596  0.91912761    -0.47200
H89         H  0.11625198  0.54122956  0.91369856     0.06600
C90         C  0.08567334  0.58983223  0.05801442     0.42300
C91         C  0.04772761  0.42644725  0.91447518    -0.06700
Co92       Co  0.06972514  0.51159203  0.97906168     0.73800
N93         N  0.05463932  0.60183362  0.92197443    -0.46900
C94         C  0.92978663  0.43628761  0.05663269     0.42600
N95         N  0.09426835  0.46357617  0.03638175    -0.46900
Co96       Co  0.00851508  0.57887400  0.98267133     0.73900
C97         C  0.96573679  0.60213382  0.04755604    -0.07200
C98         C  0.91480694  0.47279269  0.92141301    -0.06800
N99         N  0.04368175  0.44800420  0.01408809    -0.26300
N100        N  0.91584579  0.56519515  0.92716266    -0.47100
H101        H  0.89655818  0.48598252  0.04990531     0.06600
C102        C  0.09596109  0.55657404  0.04161220    -0.07200
Cl103      Cl  0.00591951  0.51449793  0.98079617    -0.50200
C104        C  0.08368608  0.59111402  0.90473168     0.42300
H105        H  0.03619755  0.39930372  0.04022095     0.06600
N106        N  0.05598259  0.60019827  0.04258688    -0.46900
C107        C  0.72481772  0.22234865  0.78493310     0.86200
C108        C  0.70315305  0.24246480  0.75874932    -0.54000
C109        C  0.72210628  0.26241905  0.73663688     0.09100
C110        C  0.76180071  0.26089087  0.74322700     0.20100
C111        C  0.75204023  0.20184292  0.76358705    -0.54700
C112        C  0.77124302  0.22161220  0.74154951     0.09300
C113        C  0.74663153  0.25135640  0.80311634    -0.54300
C114        C  0.76592731  0.27144116  0.78131440     0.09800
H115        H  0.67484352  0.24088822  0.75790085     0.14300
H116        H  0.77754424  0.27721708  0.72577675     0.00100
H117        H  0.75544743  0.17369199  0.76543920     0.14600
H118        H  0.74798730  0.25599238  0.83053460     0.14400
C119        C  0.42993063  0.06136914  0.93627966     0.42200
N120        N  0.44336567  0.02549915  0.97594245     0.01100
C121        C  0.59550708  0.02691308  0.07211980    -0.06800
H122        H  0.61574225  0.00662214  0.94396333     0.06600
C123        C  0.54495107  0.89115198  0.95245169    -0.07100
Co124      Co  0.50847981  0.04764663  0.01253336     0.74200
N125        N  0.56963613  0.01765337  0.97414106    -0.26300
Co126      Co  0.56831272  0.97952887  0.01200716     0.74100
C127        C  0.57791847  0.90103457  0.93619702     0.42300
N128        N  0.46140298  0.92078027  0.97712909     0.00700
N129        N  0.56484479  0.93915225  0.97540201     0.00800
N130        N  0.55623739  0.07116569  0.07150971    -0.47200
H131        H  0.47905256  0.09471608  0.94666531     0.06600
N132        N  0.54708504  0.04380924  0.97449983     0.01100
N133        N  0.56617171  0.94187830  0.05004884     0.00800
C134        C  0.58101074  0.90745075  0.09045150     0.42400
N135        N  0.43904985  0.94714717  0.97660799    -0.25800
C136        C  0.46275926  0.07613215  0.07353464    -0.06700
N137        N  0.41899519  0.03264678  0.95301301    -0.46900
N138        N  0.59123043  0.93549461  0.07242544    -0.47100
C139        C  0.42901326  0.06689189  0.08878110     0.42200
N140        N  0.54789386  0.04585727  0.04925941     0.01100
N141        N  0.43864381  0.94933947  0.05134232    -0.25800
N142        N  0.46922015  0.04834465  0.97583536    -0.26300
N143        N  0.46132743  0.92334278  0.05199941     0.00700
H144        H  0.39109506  0.96017891  0.07900326     0.06600
H145        H  0.53198214  0.87323781  0.08214632     0.06600
N146        N  0.57072844  0.01994171  0.04876675    -0.26300
N147        N  0.53926883  0.91602137  0.97663720    -0.26000
N148        N  0.44367402  0.02768372  0.05084674     0.01100
C149        C  0.58378328  0.05691585  0.93467888     0.42500
C150        C  0.41623234  0.94139055  0.95106079    -0.07200
N151        N  0.54031644  0.91901107  0.05138886    -0.26000
H152        H  0.52873557  0.86835848  0.94792247     0.06600
N153        N  0.55467783  0.06784911  0.95151794    -0.47200
H154        H  0.39423086  0.95790376  0.94497953     0.06600
C155        C  0.42329373  0.91063685  0.09091560     0.42300
C156        C  0.46312863  0.07195153  0.95161138    -0.06700
Co157      Co  0.44063229  0.98745648  0.01370035     0.73800
N158        N  0.45474051  0.89644314  0.95326410    -0.46900
C159        C  0.58608927  0.06115957  0.08691367     0.42600
N160        N  0.41898861  0.03651264  0.07335401    -0.46900
Co161      Co  0.50050245  0.91913398  0.01444853     0.73900
C162        C  0.54730955  0.89617266  0.07630986    -0.07200
C163        C  0.59342199  0.02319161  0.94940731    -0.06800
N164        N  0.46945832  0.05062354  0.05022129    -0.26300
N165        N  0.58855144  0.93112650  0.95166353    -0.47100
H166        H  0.61825743  0.01087893  0.07661844     0.06600
C167        C  0.41392144  0.94388569  0.07510559    -0.07200
Cl168      Cl  0.50447464  0.98342678  0.01324499    -0.50200
C169        C  0.42658906  0.90771204  0.93580653     0.42300
H170        H  0.47813230  0.09966344  0.07715825     0.06600
N171        N  0.45284277  0.89948528  0.07487759    -0.46900
C172        C  0.23534056  0.78724071  0.70699132     0.86200
C173        C  0.21242994  0.76476324  0.73030479    -0.54000
C174        C  0.23033345  0.74497022  0.75310525     0.09100
C175        C  0.27024577  0.74951321  0.75080739     0.20100
C176        C  0.25821401  0.80890559  0.73234228    -0.54700
C177        C  0.27598183  0.78925005  0.75560145     0.09300
C178        C  0.26171038  0.76174129  0.69030928    -0.54300
C179        C  0.27966715  0.74156340  0.71288573     0.09800
H180        H  0.18409513  0.76444625  0.72873039     0.14300
H181        H  0.28505902  0.73344208  0.76919428     0.00100
H182        H  0.26160228  0.83699218  0.73197023     0.14600
H183        H  0.26572733  0.75969891  0.66270737     0.14400
C184        C  0.92281478  0.10388655  0.42533358     0.42200
N185        N  0.96054199  0.06352489  0.43529571     0.01100
C186        C  0.96186318  0.94838921  0.57141791    -0.06800
H187        H  0.98119494  0.07533860  0.60760036     0.06600
C188        C  0.09378791  0.07597233  0.53556732    -0.07100
Co189      Co  0.93935215  0.01938083  0.49480816     0.74200
N190        N  0.96976311  0.05050593  0.55884055    -0.26300
Co191      Co  0.00797626  0.01178805  0.55227476     0.74100
C192        C  0.08352246  0.08923155  0.56957363     0.42300
N193        N  0.06482239  0.05907072  0.45247142     0.00700
N194        N  0.04766598  0.04907448  0.55343526     0.00800
N195        N  0.91692695  0.95429636  0.53454060    -0.47200
H196        H  0.88926614  0.08804563  0.47178597     0.06600
N197        N  0.94355688  0.05347355  0.53712364     0.01100
N198        N  0.04585557  0.97286586  0.54417635     0.00800
C199        C  0.08067516  0.92909828  0.55045425     0.42400
N200        N  0.03910953  0.06240017  0.43027431    -0.25800
C201        C  0.91331896  0.96038799  0.44515584    -0.06700
N202        N  0.95241722  0.08846669  0.41350207    -0.46900
N203        N  0.05272318  0.94606950  0.56423701    -0.47100
C204        C  0.92318604  0.94686077  0.41099673     0.42200
N205        N  0.94182297  0.97760115  0.52872617     0.01100
N206        N  0.03703760  0.98662328  0.42084428    -0.25800
N207        N  0.93756280  0.06091934  0.46050595    -0.26300
N208        N  0.06302457  0.98363712  0.44271517     0.00700
H209        H  0.02454778  0.96022835  0.37322603     0.06600
H210        H  0.11300622  0.94455893  0.50295602     0.06600
N211        N  0.96811853  0.97493208  0.55030780    -0.26300
N212        N  0.07010465  0.05119421  0.52777323    -0.26000
N213        N  0.95910809  0.98746751  0.42674637     0.01100
C214        C  0.93098387  0.08957222  0.57835213     0.42500
C215        C  0.04635482  0.08972671  0.41024156    -0.07200
N216        N  0.06815605  0.97512157  0.51842852    -0.26000
H217        H  0.11620761  0.08271808  0.52005627     0.06600
N218        N  0.91969217  0.07635125  0.54792530    -0.47200
H219        H  0.03116930  0.09765736  0.38835650     0.06600
C220        C  0.07485071  0.94593229  0.40262628     0.37900
C221        C  0.91271233  0.08530155  0.45637145    -0.06700
Co222      Co  0.99886635  0.02515284  0.42762465     0.73800
N223        N  0.08992005  0.08240414  0.44845740    -0.46900
C224        C  0.92791692  0.93449737  0.56084995     0.42600
N225        N  0.95173538  0.96513963  0.40131926    -0.46900
Co226      Co  0.06707513  0.01719762  0.48529158     0.73900
C227        C  0.09099453  0.94861922  0.52007238    -0.07200
C228        C  0.96454690  0.07284043  0.58533134    -0.06800
N229        N  0.93683995  0.98530503  0.45256197    -0.26300
N230        N  0.05515266  0.07083166  0.57928962    -0.47100
H231        H  0.97812548  0.94122876  0.59281683     0.06600
C232        C  0.04183271  0.96348859  0.39489198    -0.07200
Cl233      Cl  0.00327831  0.01842874  0.48998055    -0.50200
C234        C  0.07998511  0.10317910  0.42272529     0.42300
H235        H  0.89153498  0.95358723  0.46145692     0.06600
N236        N  0.08615795  0.95970776  0.43281294    -0.46900
C237        C  0.74048472  0.71627800  0.28631496     0.86200
C238        C  0.71637542  0.73787069  0.26333501    -0.54000
C239        C  0.73341335  0.75917034  0.24095300     0.09100
C240        C  0.77360234  0.75782352  0.24422649     0.20100
C241        C  0.76564971  0.69736650  0.26139491    -0.54700
C242        C  0.78283441  0.71864631  0.23900157     0.09300
C243        C  0.76366327  0.74415923  0.30425887    -0.54300
C244        C  0.78113610  0.76543445  0.28245122     0.09800
H245        H  0.68807461  0.73616106  0.26445070     0.14300
H246        H  0.78784414  0.77571455  0.22697194     0.00100
H247        H  0.76931230  0.66914765  0.26140034     0.14600
H248        H  0.76696502  0.74781214  0.33162203     0.14400
C249        C  0.22573384  0.28380919  0.21381327     0.86200
C250        C  0.20437223  0.26277524  0.24012984    -0.54000
C251        C  0.22415764  0.24332271  0.26156273     0.09100
C252        C  0.26364926  0.24528914  0.25449033     0.20100
C253        C  0.25180755  0.30461051  0.23624220    -0.54700
C254        C  0.27197862  0.28454413  0.25703990     0.09300
C255        C  0.24785136  0.25559031  0.19507817    -0.54300
C256        C  0.26819726  0.23555618  0.21603054     0.09800
H257        H  0.17634180  0.26306838  0.24325394     0.14300
H258        H  0.27978529  0.22965288  0.27211490     0.00100
H259        H  0.25331539  0.33302074  0.23639513     0.14600
H260        H  0.24793038  0.25235491  0.16730998     0.14400
C261        C  0.78033277  0.28395418  0.20974869     0.86200
C262        C  0.75650080  0.30349904  0.23608788    -0.54000
C263        C  0.73757915  0.28212846  0.25686733     0.09100
C264        C  0.74387164  0.24299368  0.24958508     0.20100
C265        C  0.80249859  0.25979878  0.23210930    -0.54700
C266        C  0.78359311  0.23838100  0.25279496     0.09300
C267        C  0.75496727  0.25952731  0.19039467    -0.54300
C268        C  0.73588940  0.23813467  0.21101593     0.09800
H269        H  0.75379841  0.33156967  0.23892021     0.14300
H270        H  0.72882068  0.22548131  0.26661011     0.00100
H271        H  0.83086315  0.26055821  0.23247869     0.14600
H272        H  0.75248831  0.25906176  0.16261623     0.14400
C273        C  0.26605785  0.71431126  0.28736203     0.86200
C274        C  0.24330398  0.69592327  0.26017713    -0.54000
C275        C  0.22703592  0.71803023  0.23834184     0.09100
C276        C  0.23451874  0.75709854  0.24569617     0.20100
C277        C  0.29083269  0.73809085  0.26717703    -0.54700
C278        C  0.27465399  0.76051873  0.24546202     0.09300
C279        C  0.24084595  0.74054753  0.30542639    -0.54300
C280        C  0.22445284  0.76292516  0.28372041     0.09800
H281        H  0.24038109  0.66764315  0.25825648     0.14300
H282        H  0.22085240  0.77484455  0.22792024     0.00100
H283        H  0.31903656  0.73705160  0.26981222     0.14600
H284        H  0.23640280  0.74279539  0.33279956     0.14400
C285        C  0.28588933  0.21674727  0.78128781     0.86200
C286        C  0.25950073  0.19661429  0.75869171    -0.54000
C287        C  0.23887648  0.21713202  0.73867115     0.09100
C288        C  0.24652603  0.25655097  0.74327562     0.20100
C289        C  0.30622088  0.23947790  0.75540873    -0.54700
C290        C  0.28574543  0.26011557  0.73517110     0.09300
C291        C  0.26433505  0.24382740  0.80183534    -0.54300
C292        C  0.24373109  0.26448495  0.78228610     0.09800
H293        H  0.25813188  0.16818732  0.75784404     0.14300
H294        H  0.22960029  0.27269854  0.72705912     0.00100
H295        H  0.33427927  0.24058783  0.75320683     0.14600
H296        H  0.26535773  0.24660560  0.82963176     0.14400
C297        C  0.77213237  0.78388715  0.71042633     0.86200
C298        C  0.74674119  0.75999896  0.69054561    -0.54000
C299        C  0.72791147  0.73787067  0.71052897     0.09100
C300        C  0.73588903  0.74156611  0.74913215     0.20100
C301        C  0.74876232  0.80262017  0.73769827    -0.54700
C302        C  0.72977693  0.78054474  0.75769218     0.09300
C303        C  0.79448324  0.75895919  0.73194540    -0.54300
C304        C  0.77566994  0.73657462  0.75187734     0.09800
H305        H  0.74448699  0.75999817  0.66274092     0.14300
H306        H  0.72062887  0.72355238  0.76548596     0.00100
H307        H  0.74704753  0.83058102  0.74215369     0.14600
H308        H  0.82284830  0.75943419  0.73183843     0.14400
C309        C  0.16096953  0.19746289  0.67954746    -0.11600
C310        C  0.17387976  0.16897248  0.66018325     0.14900
C311        C  0.20853247  0.15776945  0.66528457     0.01800
C312        C  0.22883459  0.17403847  0.69078680    -0.16000
C313        C  0.21571549  0.20188554  0.71128884    -0.10800
C314        C  0.18139345  0.21411512  0.70497446     0.08500
C315        C  0.14953896  0.14929369  0.63744524     0.09600
S316        S  0.22801872  0.12226228  0.64067588    -0.25100
H317        H  0.25533303  0.16490999  0.69450700     0.19800
S318        S  0.16202163  0.24907857  0.73036089    -0.30800
H319        H  0.13428494  0.20576857  0.67545961     0.10100
C320        C  0.13399972  0.11789338  0.64826352     0.03300
C321        C  0.11163146  0.09942354  0.62596294    -0.13100
C322        C  0.10451728  0.11164502  0.59296089    -0.08800
C323        C  0.11904151  0.14384412  0.58266548     0.06800
C324        C  0.14148659  0.16225788  0.60495111    -0.13900
S325        S  0.14284234  0.10126271  0.69048035    -0.30800
H326        H  0.10041683  0.07480892  0.63387443     0.11000
S327        S  0.10916678  0.16323567  0.54196363    -0.27900
H328        H  0.15282735  0.18680009  0.59692162     0.08300
H329        H  0.12935027  0.24958938  0.71399190     0.26700
H330        H  0.11955026  0.07280465  0.68866848     0.21500
H331        H  0.07505091  0.14976383  0.53949247     0.26800
H332        H  0.20830802  0.12699148  0.61074518     0.15600
C333        C  0.11583758  0.17591156  0.36783023    -0.11600
C334        C  0.15083068  0.16564362  0.36442833     0.14900
C335        C  0.16331197  0.13719590  0.38342798     0.01800
C336        C  0.13980393  0.11789675  0.40312435    -0.16000
C337        C  0.10420051  0.12694329  0.40494943    -0.10800
C338        C  0.09263939  0.15733449  0.38838582     0.08500
C339        C  0.17272333  0.18412403  0.33932200     0.09600
S340        S  0.20851289  0.12375018  0.38287249    -0.25100
H341        H  0.14928605  0.09509917  0.41638960     0.19800
S342        S  0.04917873  0.17459258  0.39331448    -0.30800
H343        H  0.10645488  0.19843596  0.35404659     0.10100
C344        C  0.18092464  0.16871343  0.30712340     0.03300
C345        C  0.19856872  0.18852485  0.28261090    -0.13100
C346        C  0.20807780  0.22337926  0.28959615    -0.08800
C347        C  0.19893614  0.23906678  0.32166348     0.06800
C348        C  0.18201373  0.21898520  0.34632405    -0.13900
S349        S  0.16699349  0.12461370  0.29647284    -0.30800
H350        H  0.20383908  0.17730927  0.25738839     0.11000
S351        S  0.20604161  0.28467126  0.33281945    -0.27900
H352        H  0.17476813  0.23100772  0.37078228     0.08300
H353        H  0.04413311  0.16273935  0.42695316     0.26700
H354        H  0.18077082  0.12329766  0.26292816     0.21500
H355        H  0.20994366  0.29769871  0.29969899     0.26800
H356        H  0.22255357  0.15665765  0.37496591     0.15600
C357        C  0.83762335  0.81276579  0.64028801    -0.11600
C358        C  0.83569498  0.84928883  0.64277792     0.14900
C359        C  0.81155842  0.86487919  0.66578506     0.01800
C360        C  0.79154496  0.84377663  0.68729032    -0.16000
C361        C  0.79407751  0.80679184  0.68617775    -0.10800
C362        C  0.81693538  0.79138362  0.66111508     0.08500
C363        C  0.86006601  0.87031944  0.62185327     0.09600
S364        S  0.80494900  0.91169275  0.66906647    -0.25100
H365        H  0.77364899  0.85724464  0.70425472     0.19800
S366        S  0.82046656  0.74443390  0.65489830    -0.30800
H367        H  0.85595950  0.80100314  0.62221611     0.10100
C368        C  0.88803666  0.88879271  0.63707199     0.03300
C369        C  0.91013999  0.90885161  0.61645884    -0.13100
C370        C  0.90521787  0.91065880  0.58073774    -0.08800
C371        C  0.87785621  0.89098559  0.56545206     0.06800
C372        C  0.85548421  0.87133644  0.58616658    -0.13900
S373        S  0.89589669  0.88646790  0.68272581    -0.30800
H374        H  0.93093414  0.92373897  0.62848884     0.11000
S375        S  0.87063975  0.88897667  0.51972504    -0.27900
H376        H  0.83436656  0.85657881  0.57437652     0.08300
H377        H  0.83928729  0.74476194  0.62380087     0.26700
H378        H  0.92455534  0.90950319  0.68388765     0.21500
H379        H  0.90631030  0.88918256  0.51086797     0.26800
H380        H  0.81521400  0.91935621  0.63534796     0.15600
C381        C  0.18024576  0.85000588  0.30598802    -0.11600
C382        C  0.15432381  0.83914850  0.32898511     0.14900
C383        C  0.14952883  0.80301311  0.33442501     0.01800
C384        C  0.17246094  0.77891693  0.31896502    -0.16000
C385        C  0.19926001  0.78974626  0.29679807    -0.10800
C386        C  0.20264660  0.82575467  0.28964896     0.08500
C387        C  0.13392522  0.86630829  0.34797351     0.09600
S388        S  0.11489434  0.78596024  0.36088607    -0.25100
H389        H  0.16933390  0.75131089  0.32425767     0.19800
S390        S  0.23683300  0.84168180  0.26200795    -0.30800
H391        H  0.18359881  0.87776948  0.30179064     0.10100
C392        C  0.13711222  0.87110044  0.38379500     0.03300
C393        C  0.11689801  0.89677119  0.40067826    -0.13100
C394        C  0.09450674  0.91889858  0.38249529    -0.08800
C395        C  0.09314893  0.91552563  0.34619175     0.06800
C396        C  0.11236812  0.88880993  0.32952889    -0.13900
S397        S  0.16819013  0.84580724  0.40787336    -0.30800
H398        H  0.11883258  0.89984875  0.42830356     0.11000
S399        S  0.06987347  0.94648945  0.32024706    -0.27900
H400        H  0.11118690  0.88567412  0.30186405     0.08300
H401        H  0.22741414  0.87729310  0.26342779     0.26700
H402        H  0.16193121  0.86199535  0.44007878     0.21500
H403        H  0.07823244  0.93153852  0.28794486     0.26800
H404        H  0.09156757  0.81394958  0.35649332     0.15600
C405        C  0.85376055  0.80952255  0.33322490    -0.11600
C406        C  0.84473379  0.84489594  0.33023993     0.14900
C407        C  0.81667593  0.85421183  0.30881162     0.01800
C408        C  0.79735264  0.82786030  0.29206347    -0.16000
C409        C  0.80578128  0.79239015  0.29570979    -0.10800
C410        C  0.83485430  0.78327151  0.31599467     0.08500
C411        C  0.86439032  0.87115680  0.35080255     0.09600
S412        S  0.80308101  0.89897669  0.30301281    -0.25100
H413        H  0.77486627  0.83508400  0.27738042     0.19800
S414        S  0.84875358  0.73858025  0.32138608    -0.30800
H415        H  0.87543287  0.80231260  0.34945047     0.10100
C416        C  0.85138574  0.88431327  0.38229496     0.03300
C417        C  0.87116417  0.90873023  0.40121560    -0.13100
C418        C  0.90383732  0.92064327  0.38937122    -0.08800
C419        C  0.91673748  0.90721321  0.35746492     0.06800
C420        C  0.89685912  0.88254289  0.33878037    -0.13900
S421        S  0.80978284  0.86956389  0.39866887    -0.30800
H422        H  0.86079003  0.91848529  0.42539862     0.11000
S423        S  0.95831529  0.92062176  0.33986040    -0.27900
H424        H  0.90642002  0.87211099  0.31443807     0.08300
H425        H  0.83863711  0.72699738  0.28845397     0.26700
H426        H  0.80767226  0.89339022  0.42663108     0.21500
H427        H  0.95922882  0.89685125  0.31180767     0.26800
H428        H  0.83552339  0.91473701  0.30985372     0.15600
C429        C  0.84405122  0.17441842  0.29690355    -0.11600
C430        C  0.83717703  0.18231137  0.33164535     0.14900
C431        C  0.81127163  0.20749346  0.34014000     0.01800
C432        C  0.79273222  0.22374962  0.31385501    -0.16000
C433        C  0.80025713  0.21643361  0.27914094    -0.10800
C434        C  0.82579283  0.19095911  0.27066759     0.08500
C435        C  0.85789418  0.16394104  0.35802070     0.09600
S436        S  0.80162714  0.22118428  0.38376508    -0.25100
H437        H  0.77346111  0.24357996  0.32053872     0.19800
S438        S  0.83583891  0.17798004  0.22695955    -0.30800
H439        H  0.86371891  0.15500322  0.29018988     0.10100
C440        C  0.84310979  0.13816605  0.37909772     0.03300
C441        C  0.86449912  0.12010490  0.40213795    -0.13100
C442        C  0.90053762  0.12693858  0.40426305    -0.08800
C443        C  0.91489206  0.15354459  0.38378991     0.06800
C444        C  0.89361817  0.17143133  0.36080216    -0.13900
S445        S  0.79754830  0.12661947  0.37507501    -0.30800
H446        H  0.85338401  0.09942360  0.41733768     0.11000
S447        S  0.96006158  0.16625872  0.38596330    -0.27900
H448        H  0.90502460  0.19142191  0.34484975     0.08300
H449        H  0.80235431  0.18461255  0.21383702     0.26700
H450        H  0.79629605  0.10392223  0.40308167     0.21500
H451        H  0.96418882  0.15925194  0.42104903     0.26800
H452        H  0.83513050  0.21499884  0.39696590     0.15600
C453        C  0.17145262  0.80656461  0.63261628    -0.11600
C454        C  0.16911297  0.84311150  0.63415134     0.14900
C455        C  0.18810735  0.86173003  0.65947880     0.01800
C456        C  0.20993879  0.84369963  0.68183628    -0.16000
C457        C  0.21291121  0.80680623  0.68060986    -0.10800
C458        C  0.19259115  0.78815365  0.65559055     0.08500
C459        C  0.14642296  0.86134430  0.60933515     0.09600
S460        S  0.18503529  0.90869631  0.66517559    -0.25100
H461        H  0.22331553  0.85928775  0.70094615     0.19800
S462        S  0.19239676  0.74070895  0.65276692    -0.30800
H463        H  0.15644449  0.79248141  0.61330940     0.10100
C464        C  0.16070154  0.88188899  0.58313311     0.03300
C465        C  0.13855344  0.90259933  0.56333259    -0.13100
C466        C  0.10219939  0.90303590  0.56889043    -0.08800
C467        C  0.08771727  0.88014175  0.59329695     0.06800
C468        C  0.11002988  0.85967604  0.61335562    -0.13900
S469        S  0.20726419  0.88222758  0.57535283    -0.30800
H470        H  0.14994059  0.91955576  0.54441309     0.11000
S471        S  0.04096499  0.87633480  0.59878265    -0.27900
H472        H  0.09927018  0.84307921  0.63298167     0.08300
H473        H  0.16727747  0.73701976  0.62669148     0.26700
H474        H  0.20653087  0.90335475  0.54616245     0.21500
H475        H  0.04160114  0.85088381  0.62441507     0.26800
H476        H  0.14994128  0.91162788  0.65513542     0.15600
C477        C  0.66268411  0.11233801  0.12494520    -0.11600
C478        C  0.64566590  0.13328820  0.14976368     0.14900
C479        C  0.60917145  0.13017082  0.15403744     0.01800
C480        C  0.59060490  0.10614443  0.13346794    -0.16000
C481        C  0.60761468  0.08492717  0.10870215    -0.10800
C482        C  0.64412608  0.08862055  0.10398455     0.08500
C483        C  0.66652503  0.16032529  0.16819201     0.09600
S484        S  0.58475336  0.15641096  0.18479965    -0.25100
H485        H  0.56257319  0.10398546  0.13681545     0.19800
S486        S  0.66711318  0.06617899  0.06937296    -0.30800
H487        H  0.69053627  0.11558738  0.12126893     0.10100
C488        C  0.69128811  0.15136343  0.19323296     0.03300
C489        C  0.71275945  0.17753278  0.20764645    -0.13100
C490        C  0.71018735  0.21243201  0.19726230    -0.08800
C491        C  0.68427780  0.22152253  0.17312006     0.06800
C492        C  0.66307995  0.19534635  0.15865861    -0.13900
S493        S  0.69566165  0.10655857  0.20661601    -0.30800
H494        H  0.73237822  0.17064748  0.22629339     0.11000
S495        S  0.67623863  0.26590862  0.16009354    -0.27900
H496        H  0.64388184  0.20225523  0.13956002     0.08300
H497        H  0.69908508  0.08402264  0.07286070     0.26700
H498        H  0.72312888  0.11238113  0.22993143     0.21500
H499        H  0.68594189  0.28192277  0.19143540     0.26800
H500        H  0.61220716  0.16172194  0.20818595     0.15600
C501        C  0.35011693  0.11027369  0.13321549    -0.11600
C502        C  0.36622874  0.13736871  0.15205872     0.14900
C503        C  0.40302938  0.13989170  0.15159033     0.01800
C504        C  0.42262004  0.11637192  0.13113862    -0.16000
C505        C  0.40653537  0.08982872  0.11118949    -0.10800
C506        C  0.36958051  0.08686683  0.11260862     0.08500
C507        C  0.34353240  0.16359946  0.16999751     0.09600
S508        S  0.42654854  0.17271954  0.17613547    -0.25100
H509        H  0.45079932  0.11889316  0.13093905     0.19800
S510        S  0.34507986  0.05564514  0.08718567    -0.30800
H511        H  0.32186548  0.10828529  0.13340835     0.10100
C512        C  0.33836317  0.19727914  0.15678433     0.03300
C513        C  0.31436162  0.22015411  0.17283803    -0.13100
C514        C  0.29483270  0.21019752  0.20181030    -0.08800
C515        C  0.30095238  0.17661383  0.21558496     0.06800
C516        C  0.32499756  0.15376195  0.19936810    -0.13900
S517        S  0.36104907  0.21061344  0.11842080    -0.30800
H518        H  0.31053030  0.24596443  0.16246814     0.11000
S519        S  0.27690677  0.16093171  0.25208340    -0.27900
H520        H  0.32886606  0.12766238  0.20907796     0.08300
H521        H  0.36063310  0.06576598  0.05609425     0.26700
H522        H  0.34971058  0.24567901  0.11917585     0.21500
H523        H  0.29841871  0.13196417  0.25870849     0.26800
H524        H  0.40127225  0.17742731  0.20209152     0.15600
C525        C  0.39014381  0.83830160  0.14988600    -0.11600
C526        C  0.35660930  0.85060544  0.15822466     0.14900
C527        C  0.34585520  0.88339005  0.14600186     0.01800
C528        C  0.36792517  0.90204907  0.12414727    -0.16000
C529        C  0.40143671  0.88958554  0.11493838    -0.10800
C530        C  0.41281646  0.85748193  0.12891238     0.08500
C531        C  0.33401200  0.82890931  0.18043312     0.09600
S532        S  0.30449714  0.90309455  0.15766562    -0.25100
H533        H  0.35862541  0.92676296  0.11464785     0.19800
S534        S  0.45604789  0.84010916  0.12117857    -0.30800
H535        H  0.39859556  0.81336505  0.15977581     0.10100
C536        C  0.30473604  0.81056519  0.16750335     0.03300
C537        C  0.28532233  0.78909657  0.18944154    -0.13100
C538        C  0.29426968  0.78594225  0.22419156    -0.08800
C539        C  0.32235670  0.80623978  0.23745096     0.06800
C540        C  0.34234879  0.82660551  0.21529118    -0.13900
S541        S  0.29285422  0.81333793  0.12282318    -0.30800
H542        H  0.26371733  0.77393142  0.17924140     0.11000
S543        S  0.33305265  0.80916434  0.28252901    -0.27900
H544        H  0.36420806  0.84149863  0.22545859     0.08300
H545        H  0.45852667  0.82306339  0.15281631     0.26700
H546        H  0.26044850  0.79622277  0.12569235     0.21500
H547        H  0.29869233  0.80463260  0.29453273     0.26800
H548        H  0.30175149  0.88806238  0.19023616     0.15600
C549        C  0.62370604  0.82747658  0.88579583    -0.11600
C550        C  0.64167143  0.84659993  0.86094388     0.14900
C551        C  0.63748227  0.88338027  0.86031719     0.01800
C552        C  0.61687857  0.90021601  0.88541290    -0.16000
C553        C  0.59914569  0.88119402  0.91056435    -0.10800
C554        C  0.60289247  0.84427759  0.91077850     0.08500
C555        C  0.66498957  0.82750300  0.83647915     0.09600
S556        S  0.65718131  0.91030072  0.82793398    -0.25100
H557        H  0.61410941  0.92846671  0.88488523     0.19800
S558        S  0.58431207  0.81719500  0.94352265    -0.30800
H559        H  0.62691689  0.79927924  0.88644088     0.10100
C560        C  0.70148101  0.83254590  0.83663294     0.03300
C561        C  0.72204821  0.81611273  0.81116549    -0.13100
C562        C  0.70706927  0.79401087  0.78602294    -0.08800
C563        C  0.67081466  0.78729142  0.78718069     0.06800
C564        C  0.65015699  0.80425538  0.81232544    -0.13900
S565        S  0.72197114  0.85933496  0.86958677    -0.30800
H566        H  0.74998858  0.82054040  0.81065193     0.11000
S567        S  0.65024141  0.75876984  0.75580686    -0.27900
H568        H  0.62216678  0.80019284  0.81273090     0.08300
H569        H  0.59209706  0.84069808  0.97070492     0.26700
H570        H  0.75583425  0.85863910  0.85542259     0.21500
H571        H  0.61600189  0.76157318  0.76880882     0.26800
H572        H  0.65739996  0.88454114  0.80163939     0.15600
C573        C  0.31018111  0.15048470  0.85162459    -0.11600
C574        C  0.34641717  0.14767022  0.84772044     0.14900
C575        C  0.36304867  0.16602667  0.82125100     0.01800
C576        C  0.34352678  0.18805180  0.80037667    -0.16000
C577        C  0.30700768  0.19212847  0.80447990    -0.10800
C578        C  0.29024578  0.17196504  0.83024479     0.08500
C579        C  0.36639036  0.12575162  0.87181370     0.09600
S580        S  0.40932220  0.16241724  0.81255709    -0.25100
H581        H  0.35771480  0.20097468  0.78049367     0.19800
S582        S  0.24335460  0.17302356  0.83656098    -0.30800
H583        H  0.29758699  0.13597884  0.87182189     0.10100
C584        C  0.38876450  0.14096249  0.89656679     0.03300
C585        C  0.40943514  0.11929989  0.91687352    -0.13100
C586        C  0.40787381  0.08260165  0.91343917    -0.08800
C587        C  0.38468249  0.06742644  0.88919061     0.06800
C588        C  0.36403369  0.08913669  0.86889379    -0.13900
S589        S  0.39045453  0.18797393  0.90277863    -0.30800
H590        H  0.42649753  0.13107442  0.93593858     0.11000
S591        S  0.38130901  0.02076914  0.88177435    -0.27900
H592        H  0.34681666  0.07743309  0.84985949     0.08300
H593        H  0.24123007  0.14550317  0.85997705     0.26700
H594        H  0.41414185  0.18833166  0.93031156     0.21500
H595        H  0.41710224  0.01392660  0.88620938     0.26800
H596        H  0.41320521  0.12781982  0.82364018     0.15600
C597        C  0.61568038  0.85191989  0.16308974    -0.11600
C598        C  0.65042942  0.84657373  0.15258254     0.14900
C599        C  0.66235010  0.86203334  0.12203704     0.01800
C600        C  0.63947140  0.88268020  0.10299674    -0.16000
C601        C  0.60449277  0.88757658  0.11316411    -0.10800
C602        C  0.59276144  0.87247067  0.14396720     0.08500
C603        C  0.67337459  0.82461314  0.17401074     0.09600
S604        S  0.70618076  0.85601268  0.10571592    -0.25100
H605        H  0.64878176  0.89407486  0.07939018     0.19800
S606        S  0.54945800  0.87969579  0.16104235    -0.30800
H607        H  0.60651137  0.84040104  0.18669623     0.10100
C608        C  0.69890722  0.83933713  0.19591570     0.03300
C609        C  0.71927102  0.81730743  0.21636516    -0.13100
C610        C  0.71431950  0.78086109  0.21572265    -0.08800
C611        C  0.68959065  0.76621622  0.19260282     0.06800
C612        C  0.66912361  0.78819392  0.17253104    -0.13900
S613        S  0.70462385  0.88624930  0.19883873    -0.30800
H614        H  0.73821497  0.82855326  0.23353120     0.11000
S615        S  0.68361777  0.71975361  0.18625739    -0.27900
H616        H  0.64997111  0.77679250  0.15522158     0.08300
H617        H  0.54601608  0.91395124  0.14880771     0.26700
H618        H  0.72979544  0.88633604  0.22507027     0.21500
H619        H  0.71810164  0.71036842  0.19420890     0.26800
H620        H  0.71134733  0.82234161  0.11875518     0.15600
C621        C  0.31273481  0.84962418  0.82590760    -0.11600
C622        C  0.34649501  0.83598126  0.82991399     0.14900
C623        C  0.35603536  0.80542401  0.81094765     0.01800
C624        C  0.33228146  0.79031132  0.78762545    -0.16000
C625        C  0.29903778  0.80490476  0.78259249    -0.10800
C626        C  0.28887294  0.83430234  0.80302708     0.08500
C627        C  0.37002340  0.85353592  0.85534349     0.09600
S628        S  0.39818986  0.78477847  0.81469163    -0.25100
H629        H  0.34025952  0.76751030  0.77252860     0.19800
S630        S  0.24532678  0.85241331  0.80290138    -0.30800
H631        H  0.30463180  0.87213835  0.84137590     0.10100
C632        C  0.37948665  0.88912041  0.85226270     0.03300
C633        C  0.39798151  0.90600275  0.87889580    -0.13100
C634        C  0.40816604  0.88794014  0.90824421    -0.08800
C635        C  0.39976227  0.85199322  0.91076209     0.06800
C636        C  0.38076874  0.83528591  0.88443336    -0.13900
S637        S  0.36880779  0.91290965  0.81401480    -0.30800
H638        H  0.40484816  0.93339797  0.87677753     0.11000
S639        S  0.41053906  0.82652458  0.94773869    -0.27900
H640        H  0.37327200  0.80810819  0.88718532     0.08300
H641        H  0.22828405  0.82030061  0.79665038     0.26700
H642        H  0.38297083  0.94531900  0.82467497     0.21500
H643        H  0.40285931  0.85332664  0.97191050     0.26800
H644        H  0.41685138  0.81564286  0.82230283     0.15600
C645        C  0.88663116  0.12759375  0.65870608    -0.11600
C646        C  0.86545055  0.15345252  0.64457593     0.14900
C647        C  0.86598930  0.15837134  0.60875178     0.01800
C648        C  0.88764132  0.13720895  0.58789846    -0.16000
C649        C  0.90895123  0.11118856  0.60197917    -0.10800
C650        C  0.90765489  0.10594329  0.63790366     0.08500
C651        C  0.84067321  0.17212818  0.66772391     0.09600
S652        S  0.83880848  0.19021779  0.58804996    -0.25100
H653        H  0.88788175  0.14112959  0.56039971     0.19800
S654        S  0.92887642  0.06999958  0.65869099    -0.30800
H655        H  0.88536780  0.12305999  0.68608464     0.10100
C656        C  0.80711758  0.15853950  0.67389371     0.03300
C657        C  0.78517328  0.17539450  0.69787625    -0.13100
C658        C  0.79620335  0.20532976  0.71645743    -0.08800
C659        C  0.83013643  0.21862593  0.71036623     0.06800
C660        C  0.85182090  0.20210193  0.68590099    -0.13900
S661        S  0.79247236  0.11930256  0.65163053    -0.30800
H662        H  0.75911760  0.16528434  0.70208040     0.11000
S663        S  0.84842535  0.25452105  0.73483109    -0.27900
H664        H  0.87799989  0.21200226  0.68172993     0.08300
H665        H  0.92013246  0.04521585  0.63290255     0.26700
H666        H  0.76060562  0.11589680  0.66938011     0.21500
H667        H  0.83605100  0.24164393  0.76616155     0.26800
H668        H  0.83672208  0.21404767  0.61593205     0.15600
C669        C  0.66045823  0.14926705  0.81181055    -0.11600
C670        C  0.66001322  0.15280443  0.84764784     0.14900
C671        C  0.68037830  0.17937052  0.86335091     0.01800
C672        C  0.70099859  0.20129555  0.84314835    -0.16000
C673        C  0.70191399  0.19802774  0.80694438    -0.10800
C674        C  0.68086683  0.17133039  0.79132224     0.08500
C675        C  0.64006260  0.12695650  0.86815013     0.09600
S676        S  0.68137659  0.18670865  0.90929323    -0.25100
H677        H  0.71611472  0.22083390  0.85663472     0.19800
S678        S  0.68002441  0.16411546  0.74518758    -0.30800
H679        H  0.64518145  0.12850566  0.79993197     0.10100
C680        C  0.60323225  0.12548543  0.86786554     0.03300
C681        C  0.58576170  0.10184022  0.88927413    -0.13100
C682        C  0.60421806  0.07961399  0.91120956    -0.08800
C683        C  0.64123511  0.08130211  0.91125924     0.06800
C684        C  0.65854361  0.10419416  0.88926636    -0.13900
S685        S  0.57837803  0.15485887  0.84156183    -0.30800
H686        H  0.55748838  0.10102204  0.88934481     0.11000
S687        S  0.66818814  0.05792353  0.94087971    -0.27900
H688        H  0.68683196  0.10541923  0.88970586     0.08300
H689        H  0.65293767  0.13924399  0.74427159     0.26700
H690        H  0.54530738  0.14053232  0.84854238     0.21500
H691        H  0.64697339  0.06604621  0.96954925     0.26800
H692        H  0.64703286  0.17547757  0.91568967     0.15600
C693        C  0.20436841  0.35119192  0.14355303    -0.11600
C694        C  0.16797713  0.35357246  0.14565852     0.14900
C695        C  0.15003960  0.33332889  0.16982001     0.01800
C696        C  0.16861694  0.31071232  0.19090069    -0.16000
C697        C  0.20545794  0.30782745  0.18929402    -0.10800
C698        C  0.22328395  0.32884159  0.16492804     0.08500
C699        C  0.14897380  0.37484269  0.12033276     0.09600
S700        S  0.10313200  0.33483002  0.17472441    -0.25100
H701        H  0.15323653  0.29583323  0.20849299     0.19800
S702        S  0.27018748  0.32716085  0.15961117    -0.30800
H703        H  0.21791610  0.36637008  0.12443184     0.10100
C704        C  0.14596154  0.41153004  0.12390134     0.03300
C705        C  0.12541680  0.42999471  0.10049250    -0.13100
C706        C  0.10800088  0.41247296  0.07351953    -0.08800
C707        C  0.11300533  0.37597417  0.06875144     0.06800
C708        C  0.13293248  0.35754311  0.09255441    -0.13900
S709        S  0.16730174  0.43457115  0.15888598    -0.30800
H710        H  0.12224113  0.45806716  0.10360713     0.11000
S711        S  0.09617543  0.35283146  0.03142154    -0.27900
H712        H  0.13609907  0.32944703  0.08964747     0.08300
H713        H  0.27362847  0.35903546  0.14237377     0.26700
H714        H  0.15529228  0.46826575  0.15085811     0.21500
H715        H  0.11393588  0.32108706  0.03651480     0.26800
H716        H  0.09918030  0.37014181  0.16592125     0.15600
C717        C  0.15216796  0.67317192  0.19191128    -0.11600
C718        C  0.16654496  0.66786875  0.15906565     0.14900
C719        C  0.19988717  0.68182693  0.15160442     0.01800
C720        C  0.21832851  0.70007008  0.17737104    -0.16000
C721        C  0.20427282  0.70449406  0.21047506    -0.10800
C722        C  0.17058114  0.69145220  0.21750683     0.08500
C723        C  0.14595546  0.64776280  0.13330838     0.09600
S724        S  0.22055192  0.67688112  0.11006469    -0.25100
H725        H  0.24438934  0.70962473  0.17197428     0.19800
S726        S  0.15011386  0.69724116  0.25886672    -0.30800
H727        H  0.12645749  0.66288701  0.19764641     0.10100
C728        C  0.14724636  0.61089799  0.13151929     0.03300
C729        C  0.12729866  0.59278098  0.10675734    -0.13100
C730        C  0.10592911  0.61072717  0.08365975    -0.08800
C731        C  0.10495050  0.64787204  0.08555723     0.06800
C732        C  0.12460881  0.66582980  0.11053923    -0.13900
S733        S  0.17472595  0.58701722  0.16053106    -0.30800
H734        H  0.12815659  0.56444501  0.10558619     0.11000
S735        S  0.08085242  0.67417739  0.05591967    -0.27900
H736        H  0.12380308  0.69421078  0.11184697     0.08300
H737        H  0.15999163  0.73257654  0.26176130     0.26700
H738        H  0.16735698  0.55333550  0.14715287     0.21500
H739        H  0.09257913  0.65529985  0.02667354     0.26800
H740        H  0.20481410  0.64493202  0.10058492     0.15600
C741        C  0.90942752  0.64638652  0.14294475    -0.11600
C742        C  0.87284807  0.64650481  0.14064240     0.14900
C743        C  0.85664094  0.62684913  0.11399102     0.01800
C744        C  0.87727161  0.60841537  0.08998184    -0.16000
C745        C  0.91388592  0.60839596  0.09220617    -0.10800
C746        C  0.92998971  0.62691882  0.11967409     0.08500
C747        C  0.85231740  0.66711578  0.16644884     0.09600
S748        S  0.80984362  0.62399908  0.10923731    -0.25100
H749        H  0.86455370  0.59413058  0.06921256     0.19800
S750        S  0.97629615  0.62529591  0.12774670    -0.30800
H751        H  0.92203105  0.66102889  0.16355151     0.10100
C752        C  0.85242988  0.65846644  0.20145300     0.03300
C753        C  0.83112576  0.67727784  0.22459337    -0.13100
C754        C  0.80861605  0.70395949  0.21360620    -0.08800
C755        C  0.80925930  0.71324829  0.17856050     0.06800
C756        C  0.83147182  0.69501028  0.15557386    -0.13900
S757        S  0.87783502  0.62191326  0.21646745    -0.30800
H758        H  0.83117419  0.67036132  0.25141670     0.11000
S759        S  0.78028489  0.74611493  0.16190593    -0.27900
H760        H  0.83180436  0.70157681  0.12864908     0.08300
H761        H  0.98039838  0.59020212  0.11673477     0.26700
H762        H  0.86779329  0.62456190  0.25121128     0.21500
H763        H  0.79091335  0.74341592  0.12733890     0.26800
H764        H  0.80194356  0.62626797  0.14450611     0.15600
C765        C  0.19766327  0.69754870  0.83246380    -0.11600
C766        C  0.17231196  0.67538515  0.81781818     0.14900
C767        C  0.16750008  0.67499070  0.78193474     0.01800
C768        C  0.18701210  0.69765471  0.76168166    -0.16000
C769        C  0.21198891  0.72040149  0.77622043    -0.10800
C770        C  0.21770104  0.71997794  0.81205311     0.08500
C771        C  0.15010294  0.65413828  0.84063347     0.09600
S772        S  0.13671132  0.64637459  0.76045819    -0.25100
H773        H  0.18282471  0.69738614  0.73416972     0.19800
S774        S  0.24825586  0.74960296  0.83254432    -0.30800
H775        H  0.20100741  0.69785765  0.86006338     0.10100
C776        C  0.16328327  0.62430822  0.85675370     0.03300
C777        C  0.14101714  0.60429272  0.87723970    -0.13100
C778        C  0.10548576  0.61311136  0.88179521    -0.08800
C779        C  0.09240340  0.64301426  0.86508828     0.06800
C780        C  0.11491280  0.66335853  0.84520811    -0.13900
S781        S  0.20824629  0.61113483  0.85037846    -0.30800
H782        H  0.15170356  0.58180156  0.88987884     0.11000
S783        S  0.04719225  0.65605149  0.86679344    -0.27900
H784        H  0.10473416  0.68617088  0.83246476     0.08300
H785        H  0.24730105  0.73441650  0.86516098     0.26700
H786        H  0.20713334  0.58119992  0.87085386     0.21500
H787        H  0.03436390  0.62183568  0.86149965     0.26800
H788        H  0.13886225  0.61893560  0.78391806     0.15600
C789        C  0.87334257  0.67010199  0.87011532    -0.11600
C790        C  0.85044238  0.65124526  0.84867723     0.14900
C791        C  0.85076532  0.61427974  0.84948165     0.01800
C792        C  0.87504809  0.59711957  0.87021296    -0.16000
C793        C  0.89879253  0.61590454  0.89103540    -0.10800
C794        C  0.89673398  0.65301761  0.89180977     0.08500
C795        C  0.82863397  0.67084695  0.82397313     0.09600
S796        S  0.82080821  0.58760097  0.82471376    -0.25100
H797        H  0.87544184  0.56872292  0.86997817     0.19800
S798        S  0.92116182  0.68031460  0.92128441    -0.30800
H799        H  0.87280281  0.69849590  0.87010090     0.10100
C800        C  0.80071274  0.69262328  0.83480165     0.03300
C801        C  0.78295926  0.71285324  0.81056789    -0.13100
C802        C  0.79236220  0.71153626  0.77564908    -0.08800
C803        C  0.81878026  0.68788605  0.76468771     0.06800
C804        C  0.83696105  0.66840944  0.78892036    -0.13900
S805        S  0.78754547  0.69441288  0.87937551    -0.30800
H806        H  0.76236693  0.73054780  0.81896268     0.11000
S807        S  0.82976770  0.68037123  0.72013236    -0.27900
H808        H  0.85786979  0.65112625  0.78037601     0.08300
H809        H  0.91618420  0.65813703  0.94933792     0.26700
H810        H  0.75902527  0.71719891  0.87529287     0.21500
H811        H  0.79594944  0.68668542  0.70767700     0.26800
H812        H  0.79353856  0.61228655  0.82430435     0.15600
C813        C  0.11886172  0.37430779  0.83231596    -0.11600
C814        C  0.15104099  0.36594287  0.84745363     0.14900
C815        C  0.16042075  0.38294933  0.87871355     0.01800
C816        C  0.13775276  0.40755796  0.89382131    -0.16000
C817        C  0.10504874  0.41471710  0.87943640    -0.10800
C818        C  0.09564032  0.39806006  0.84815772     0.08500
C819        C  0.17442930  0.33994079  0.82992419     0.09600
S820        S  0.19997353  0.37327582  0.90175619    -0.25100
H821        H  0.14499853  0.41992161  0.91805304     0.19800
S822        S  0.05468617  0.40623011  0.82702167    -0.30800
H823        H  0.11170297  0.36208637  0.80800016     0.10100
C824        C  0.16339115  0.30528998  0.82258261     0.03300
C825        C  0.18659780  0.28164045  0.80656285    -0.13100
C826        C  0.22073725  0.29148960  0.79805988    -0.08800
C827        C  0.23254568  0.32546903  0.80742610     0.06800
C828        C  0.20884699  0.34961344  0.82179672    -0.13900
S829        S  0.12061901  0.29024807  0.83546590    -0.30800
H830        H  0.17854760  0.25484734  0.80162825     0.11000
S831        S  0.27757441  0.33954256  0.80457128    -0.27900
H832        H  0.21771550  0.37595395  0.82790511     0.08300
H833        H  0.05068906  0.44087281  0.83934112     0.26700
H834        H  0.12362108  0.25590341  0.82201423     0.21500
H835        H  0.29197259  0.30988895  0.78830028     0.26800
H836        H  0.20094583  0.33750389  0.89246926     0.15600
C837        C  0.84653062  0.31100907  0.13954376    -0.11600
C838        C  0.84664379  0.34753117  0.14314564     0.14900
C839        C  0.82473542  0.36370025  0.16778556     0.01800
C840        C  0.80327102  0.34319560  0.18835995    -0.16000
C841        C  0.80304582  0.30619211  0.18564220    -0.10800
C842        C  0.82523240  0.29015041  0.16035693     0.08500
C843        C  0.86874717  0.36841826  0.11997171     0.09600
S844        S  0.82300953  0.41063605  0.17438301    -0.25100
H845        H  0.78743025  0.35727966  0.20681197     0.19800
S846        S  0.82725458  0.24305916  0.15414979    -0.30800
H847        H  0.86335071  0.29889987  0.12029149     0.10100
C848        C  0.90517661  0.37104229  0.12446761     0.03300
C849        C  0.92465592  0.39305273  0.10312402    -0.13100
C850        C  0.90836174  0.41224285  0.07727989    -0.08800
C851        C  0.87205630  0.40794931  0.07177915     0.06800
C852        C  0.85264984  0.38670068  0.09355189    -0.13900
S853        S  0.92651856  0.34748275  0.15824967    -0.30800
H854        H  0.95250577  0.39595519  0.10702051     0.11000
S855        S  0.84915283  0.42683906  0.03626732    -0.27900
H856        H  0.82475310  0.38399570  0.08963147     0.08300
H857        H  0.84787028  0.24263907  0.12416076     0.26700
H858        H  0.96089852  0.35680303  0.14941097     0.21500
H859        H  0.87668005  0.42150902  0.01270737     0.26800
H860        H  0.85824337  0.41706880  0.16641137     0.15600
C861        C  0.84668599  0.39054367  0.86728594    -0.11600
C862        C  0.86214372  0.37253486  0.83950755     0.14900
C863        C  0.89817450  0.37693526  0.83291442     0.01800
C864        C  0.91792756  0.39898030  0.85457435    -0.16000
C865        C  0.90245278  0.41681874  0.88263314    -0.10800
C866        C  0.86645048  0.41183129  0.88933273     0.08500
C867        C  0.84059306  0.34586327  0.82150762     0.09600
S868        S  0.92059518  0.35433853  0.79818932    -0.25100
H869        H  0.94558694  0.40224312  0.84950763     0.19800
S870        S  0.84480706  0.42838007  0.92750114    -0.30800
H871        H  0.81931454  0.38621582  0.87307399     0.10100
C872        C  0.83997515  0.31113863  0.83294367     0.03300
C873        C  0.81542717  0.28762370  0.81929903    -0.13100
C874        C  0.79155094  0.29788724  0.79410721    -0.08800
C875        C  0.79267781  0.33256691  0.78205016     0.06800
C876        C  0.81715681  0.35626498  0.79604432    -0.13900
S877        S  0.86948608  0.29718480  0.86610246    -0.30800
H878        H  0.81471632  0.26098805  0.82834668     0.11000
S879        S  0.76137853  0.34767915  0.75106572    -0.27900
H880        H  0.81745146  0.38325659  0.78799797     0.08300
H881        H  0.87304584  0.42123288  0.94927631     0.26700
H882        H  0.86035707  0.26149463  0.86485923     0.21500
H883        H  0.77409027  0.38213547  0.74885125     0.26800
H884        H  0.89126487  0.34940720  0.77707044     0.15600
C885        C  0.65980099  0.69216901  0.65489114    -0.11600
C886        C  0.66650579  0.65699911  0.66213399     0.14900
C887        C  0.69173838  0.64877782  0.68709971     0.01800
C888        C  0.70977750  0.67594055  0.70395653    -0.16000
C889        C  0.70408569  0.71109749  0.69569355    -0.10800
C890        C  0.67810639  0.71929360  0.67134682     0.08500
C891        C  0.64741496  0.62990260  0.64212045     0.09600
S892        S  0.70313999  0.60442576  0.69779827    -0.25100
H893        H  0.72978901  0.66945255  0.72245115     0.19800
S894        S  0.66667925  0.76349104  0.65994676    -0.30800
H895        H  0.64017349  0.69852241  0.63594790     0.10100
C896        C  0.61967862  0.61073052  0.65640821     0.03300
C897        C  0.60085176  0.58720727  0.63541652    -0.13100
C898        C  0.60885493  0.58304153  0.60031200    -0.08800
C899        C  0.63762931  0.60125408  0.58651066     0.06800
C900        C  0.65629130  0.62471060  0.60743726    -0.13900
S901        S  0.60693101  0.61782472  0.70071297    -0.30800
H902        H  0.57871879  0.57336446  0.64595851     0.11000
S903        S  0.65221100  0.59545509  0.54265067    -0.27900
H904        H  0.67788311  0.63920654  0.59658932     0.08300
H905        H  0.67855601  0.78028751  0.69007932     0.26700
H906        H  0.57951798  0.59329795  0.70097590     0.21500
H907        H  0.64183491  0.56020248  0.53941131     0.26800
H908        H  0.69330006  0.58840818  0.66653698     0.15600
C909        C  0.30823355  0.33594876  0.67537524    -0.11600
C910        C  0.33777325  0.32228145  0.65864366     0.14900
C911        C  0.34833818  0.28772135  0.66501691     0.01800
C912        C  0.32998591  0.26806576  0.68896689    -0.16000
C913        C  0.30120524  0.28200828  0.70735158    -0.10800
C914        C  0.28966126  0.31636413  0.69955999     0.08500
C915        C  0.35897880  0.34577766  0.63727533     0.09600
S916        S  0.38572496  0.26757651  0.64426841    -0.25100
H917        H  0.33860976  0.24152034  0.69344264     0.19800
S918        S  0.25293014  0.33708139  0.72091221    -0.30800
H919        H  0.30052366  0.36260556  0.67016528     0.10100
C920        C  0.34904328  0.35437796  0.60367816     0.03300
C921        C  0.37055707  0.37645812  0.58437658    -0.13100
C922        C  0.40161143  0.39007484  0.59824243    -0.08800
C923        C  0.41179954  0.38062838  0.63166445     0.06800
C924        C  0.39011153  0.35912813  0.65096246    -0.13900
S925        S  0.30950182  0.33650979  0.58528819    -0.30800
H926        H  0.36315835  0.38333290  0.55854802     0.11000
S927        S  0.45299747  0.39331728  0.65044959    -0.27900
H928        H  0.39794552  0.35200871  0.67662898     0.08300
H929        H  0.25458341  0.36954283  0.70452805     0.26700
H930        H  0.31269952  0.35245285  0.55316397     0.21500
H931        H  0.47228918  0.38963369  0.61974735     0.26800
H932        H  0.38411690  0.28678101  0.61388657     0.15600
C933        C  0.65402928  0.34761562  0.39414384    -0.11600
C934        C  0.64914843  0.35001076  0.35858448     0.14900
C935        C  0.62256435  0.37192803  0.34609228     0.01800
C936        C  0.60131894  0.39055909  0.36930316    -0.16000
C937        C  0.60629484  0.38856291  0.40494652    -0.10800
C938        C  0.63343274  0.36711525  0.41739113     0.08500
C939        C  0.67276087  0.33032522  0.33500089     0.09600
S940        S  0.61461428  0.37759045  0.30087650    -0.25100
H941        H  0.58068039  0.40687377  0.35931306     0.19800
S942        S  0.64472263  0.36500483  0.46216736    -0.30800
H943        H  0.67474876  0.33116882  0.40378691     0.10100
C944        C  0.70788556  0.34039815  0.33092908     0.03300
C945        C  0.72869228  0.32302914  0.30635122    -0.13100
C946        C  0.71492216  0.29647092  0.28488422    -0.08800
C947        C  0.67973365  0.28615936  0.28920844     0.06800
C948        C  0.65920458  0.30290603  0.31459801    -0.13900
S949        S  0.72564313  0.37689331  0.35542532    -0.30800
H950        H  0.75570236  0.33076318  0.30318260     0.11000
S951        S  0.65972499  0.25404987  0.26087775    -0.27900
H952        H  0.63205171  0.29568896  0.31777647     0.08300
H953        H  0.63757406  0.40050188  0.46960257     0.26700
H954        H  0.75818881  0.37809023  0.33858624     0.21500
H955        H  0.62600066  0.25550770  0.27529566     0.26800
H956        H  0.64965206  0.37443915  0.29030814     0.15600
C957        C  0.33185753  0.64421471  0.31620941    -0.11600
C958        C  0.32601461  0.64343981  0.35165463     0.14900
C959        C  0.29888309  0.66376489  0.36618981     0.01800
C960        C  0.27942376  0.68585829  0.34533168    -0.16000
C961        C  0.28597035  0.68817016  0.30967148    -0.10800
C962        C  0.31187320  0.66555864  0.29496371     0.08500
C963        C  0.35024075  0.62286645  0.37285143     0.09600
S964        S  0.28774669  0.66267662  0.41126130    -0.25100
H965        H  0.25886122  0.70058114  0.35774929     0.19800
S966        S  0.32029595  0.66342133  0.24912502    -0.30800
H967        H  0.35261843  0.62821432  0.30529156     0.10100
C968        C  0.35193754  0.58607500  0.36997198     0.03300
C969        C  0.37723626  0.56798020  0.38856562    -0.13100
C970        C  0.40104563  0.58585701  0.40996174    -0.08800
C971        C  0.39909151  0.62287337  0.41280671     0.06800
C972        C  0.37349836  0.64080581  0.39459854    -0.13900
S973        S  0.32147369  0.56211022  0.34310860    -0.30800
H974        H  0.37834362  0.53969466  0.38650761     0.11000
S975        S  0.42967512  0.64913893  0.43713452    -0.27900
H976        H  0.37250357  0.66916899  0.39637282     0.08300
H977        H  0.34753921  0.63870916  0.24957083     0.26700
H978        H  0.33346998  0.52833580  0.35081522     0.21500
H979        H  0.45921955  0.63144072  0.42391928     0.26800
H980        H  0.29902143  0.62816191  0.41662315     0.15600
C981        C  0.67813501  0.64307343  0.31641158    -0.11600
C982        C  0.68057933  0.64606180  0.35212686     0.14900
C983        C  0.70448003  0.66992332  0.36676926     0.01800
C984        C  0.72358133  0.69201329  0.34553616    -0.16000
C985        C  0.72033628  0.69064710  0.30932738    -0.10800
C986        C  0.69783545  0.66456683  0.29486769     0.08500
C987        C  0.65703240  0.62458804  0.37331096     0.09600
S988        S  0.71183079  0.67356202  0.41249959    -0.25100
H989        H  0.74117167  0.70976318  0.35839071     0.19800
S990        S  0.69387049  0.65758883  0.24899448    -0.30800
H991        H  0.66028177  0.62394489  0.30546754     0.10100
C992        C  0.62931147  0.63985639  0.39224338     0.03300
C993        C  0.60729801  0.61842840  0.41153814    -0.13100
C994        C  0.61213641  0.58195757  0.41196728    -0.08800
C995        C  0.64040028  0.56685840  0.39344694     0.06800
C996        C  0.66220964  0.58826511  0.37400521    -0.13900
S997        S  0.62073070  0.68633441  0.39037186    -0.30800
H998        H  0.58542566  0.63001367  0.42534247     0.11000
S999        S  0.65097638  0.52086458  0.39453802    -0.27900
H1000       H  0.68375109  0.57662144  0.35968758     0.08300
H1001       H  0.66701129  0.63248459  0.24955604     0.26700
H1002       H  0.59606769  0.68773792  0.41724769     0.21500
H1003       H  0.64044351  0.51644654  0.42883567     0.26800
H1004       H  0.70351668  0.63866216  0.41997523     0.15600
C1005       C  0.63534800  0.33598753  0.61224877    -0.11600
C1006       C  0.65149280  0.35226832  0.64054235     0.14900
C1007       C  0.64781457  0.38877543  0.64566764     0.01800
C1008       C  0.62608128  0.40760456  0.62391143    -0.16000
C1009       C  0.60818839  0.39113746  0.59652359    -0.10800
C1010       C  0.61423528  0.35492366  0.58996719     0.08500
C1011       C  0.66989209  0.32999356  0.66535689     0.09600
S1012       S  0.66921602  0.41281261  0.68001415    -0.25100
H1013       H  0.62295622  0.43542961  0.62885116     0.19800
S1014       S  0.59494615  0.33062689  0.55480208    -0.30800
H1015       H  0.63855612  0.30801754  0.60797437     0.10100
C1016       C  0.65591666  0.32426654  0.69826878     0.03300
C1017       C  0.67402112  0.30296649  0.72101576    -0.13100
C1018       C  0.70483969  0.28529876  0.71103442    -0.08800
C1019       C  0.71772748  0.28980621  0.67723782     0.06800
C1020       C  0.70064253  0.31270265  0.65518119    -0.13900
S1021       S  0.61422483  0.34281475  0.71088094    -0.30800
H1022       H  0.66390372  0.29999225  0.74678071     0.11000
S1023       S  0.75362098  0.26493315  0.65942252    -0.27900
H1024       H  0.71071308  0.31618278  0.62941362     0.08300
H1025       H  0.60790492  0.35365314  0.53005569     0.26700
H1026       H  0.61085742  0.32507052  0.74204748     0.21500
H1027       H  0.74222392  0.23340535  0.67375443     0.26800
H1028       H  0.69665013  0.38900860  0.68500136     0.15600
C1029       C  0.36047352  0.63596153  0.61122154    -0.11600
C1030       C  0.36973853  0.63975265  0.64594732     0.14900
C1031       C  0.39587063  0.61772913  0.65927632     0.01800
C1032       C  0.41266140  0.59330568  0.63741946    -0.16000
C1033       C  0.40451117  0.59075455  0.60226646    -0.10800
C1034       C  0.37734752  0.61177925  0.58937793     0.08500
C1035       C  0.35087985  0.66653777  0.66717950     0.09600
S1036       S  0.40992740  0.62029283  0.70341974    -0.25100
H1037       H  0.43340846  0.57730344  0.64766015     0.19800
S1038       S  0.36218560  0.60843858  0.54564123    -0.30800
H1039       H  0.33974866  0.65205366  0.60104127     0.10100
C1040       C  0.35336212  0.70243147  0.65969468     0.03300
C1041       C  0.33105833  0.72646904  0.67637933    -0.13100
C1042       C  0.30628390  0.71558237  0.70066754    -0.08800
C1043       C  0.30551824  0.67993300  0.70994144     0.06800
C1044       C  0.32773173  0.65579400  0.69295348    -0.13900
S1045       S  0.38466842  0.71761146  0.62846420    -0.30800
H1046       H  0.33221664  0.75387454  0.66982482     0.11000
S1047       S  0.27437174  0.66407824  0.74087476    -0.27900
H1048       H  0.32594745  0.62817803  0.69853064     0.08300
H1049       H  0.36904577  0.57239081  0.54157060     0.26700
H1050       H  0.37656472  0.75347684  0.63160167     0.21500
H1051       H  0.28867910  0.63032735  0.74384703     0.26800
H1052       H  0.40253295  0.65605653  0.70873624     0.15600
C1053       C  0.33994361  0.34299283  0.30007949    -0.11600
C1054       C  0.33619325  0.33346946  0.33449289     0.14900
C1055       C  0.31288640  0.30621224  0.34289198     0.01800
C1056       C  0.29445709  0.28893000  0.31666330    -0.16000
C1057       C  0.29678565  0.29971753  0.28246654    -0.10800
C1058       C  0.32080714  0.32631674  0.27404558     0.08500
C1059       C  0.35734200  0.35253876  0.36051427     0.09600
S1060       S  0.30402671  0.29332192  0.38643790    -0.25100
H1061       H  0.27689570  0.26792787  0.32335088     0.19800
S1062       S  0.32976327  0.33890275  0.23054695    -0.30800
H1063       H  0.35831391  0.36339284  0.29340715     0.10100
C1064       C  0.38406962  0.33589890  0.37895047     0.03300
C1065       C  0.40435022  0.35570295  0.40208136    -0.13100
C1066       C  0.39927518  0.39197856  0.40628714    -0.08800
C1067       C  0.37251855  0.40855000  0.38777794     0.06800
C1068       C  0.35189937  0.38868149  0.36515516    -0.13900
S1069       S  0.39419039  0.29015744  0.37121525    -0.30800
H1070       H  0.42537436  0.34318059  0.41573802     0.11000
S1071       S  0.36321013  0.45477315  0.39198601    -0.27900
H1072       H  0.33148690  0.40152645  0.35084662     0.08300
H1073       H  0.32380618  0.30540489  0.21601901     0.26700
H1074       H  0.41986065  0.28729169  0.39675613     0.21500
H1075       H  0.37225970  0.45785458  0.42688400     0.26800
H1076       H  0.31168227  0.32587630  0.40210689     0.15600
loop_ 
_geom_bond_atom_site_label_1 
_geom_bond_atom_site_label_2 
_geom_bond_distance 
_geom_bond_site_symmetry_2 
_ccdc_geom_bond_type 
C1           N19   1.350       .  A
C1           C38   1.461       .  S
C1          C970   1.481       .  S
N2           N19   1.324       .  A
N2           N24   1.320       .  A
N2          Co39   2.081       .  S
C3           N28   1.342       .  A
C3           C41   1.464       .  S
C3           H48   1.081       .  S
H4           C45   1.082       .  S
C5           N29   1.339       .  A
C5            C9   1.460       .  S
C5           H34   1.081       .  S
Co6          N24   2.081       .  S
Co6          N14   2.086       .  S
Co6          N46   2.081       .  S
Co6          N22   2.085       .  S
Co6         Cl50   2.448       .  S
N7           C45   1.338       .  A
N7           N14   1.320       .  A
N7           Co8   2.077       .  S
Co8          N11   2.084       .  S
Co8          N28   2.083       .  S
Co8          N15   2.082       .  S
Co8         Cl50   2.451       .  S
C9           N47   1.349       .  A
C9          C922   1.472       .  S
N10          N17   1.319       .  A
N10          N40   1.326       .  A
N10         Co43   2.087       .  S
N11          N29   1.320       .  A
N11          N47   1.324       .  A
N12          C41   1.351       .  A
N12          N22   1.323       .  A
H13          C38   1.082       .  S
N14          N35   1.325       .  A
N15          N33   1.318       .  A
N15          N20   1.324       .  A
C16          N20   1.351       .  A
C16          C44   1.464       .  S
C16        C1009   1.489       .  S
N17          C32   1.340       .  A
N17         Co39   2.087       .  S
C18          N46   1.340       .  A
C18          C21   1.461       .  S
C18          H52   1.081       .  S
C21          N42   1.350       .  A
C21         C994   1.477       .  S
N22          N28   1.319       .  A
N23          C49   1.338       .  A
N23          N25   1.319       .  A
N23         Co39   2.080       .  S
N24          C38   1.339       .  A
N25          N53   1.325       .  A
N25         Co43   2.081       .  S
H26          C49   1.081       .  S
H27          C44   1.081       .  S
N29         Co43   2.082       .  S
N30          N42   1.324       .  A
N30          N46   1.319       .  A
N30         Co39   2.083       .  S
C31          N35   1.351       .  A
C31          C45   1.457       .  S
C31        C1066   1.473       .  S
C32          C51   1.462       .  S
C32          H36   1.081       .  S
N33          C44   1.339       .  A
N33         Co43   2.082       .  S
C37          N53   1.351       .  A
C37          C49   1.460       .  S
C37         C898   1.476       .  S
Co39        Cl50   2.447       .  S
N40          C51   1.352       .  A
C41         C937   1.481       .  S
Co43        Cl50   2.450       .  S
C51        C1033   1.483       .  S
C54          N72   1.350       .  A
C54          C91   1.463       .  S
C54         C817   1.476       .  S
N55          N72   1.323       .  A
N55          N77   1.320       .  A
N55         Co92   2.085       .  S
C56          N81   1.338       .  A
C56          C94   1.460       .  S
C56         H101   1.081       .  S
H57          C98   1.081       .  S
C58          N82   1.344       .  A
C58          C62   1.470       .  S
C58          H87   1.081       .  S
Co59         N77   2.087       .  S
Co59         N67   2.087   1_455  S
Co59         N99   2.087   1_556  S
Co59         N75   2.086   1_456  S
Co59       Cl103   2.458       .  S
N60          C98   1.339       .  A
N60          N67   1.320       .  A
N60         Co61   2.084       .  S
Co61         N64   2.086       .  S
Co61         N81   2.083   1_556  S
Co61         N68   2.083   1_556  S
Co61       Cl103   2.446   1_655  S
C62         N100   1.351       .  A
C62         C793   1.493       .  S
N63          N70   1.319       .  A
N63          N93   1.327       .  A
N63         Co96   2.095       .  S
N64          N82   1.320       .  A
N64         N100   1.325       .  A
N65          C94   1.351       .  A
N65          N75   1.326       .  A
H66          C91   1.082       .  S
N67          N88   1.326       .  A
N68          N86   1.320       .  A
N68          N73   1.325       .  A
C69          N73   1.351       .  A
C69          C97   1.462       .  S
C69         C745   1.481       .  S
N70          C85   1.336       .  A
N70         Co92   2.077       .  S
C71          N99   1.340       .  A
C71          C74   1.462       .  S
C71         H105   1.081       .  S
C74          N95   1.351       .  A
C74         C706   1.482       .  S
N75          N81   1.320       .  A
N76         C102   1.341       .  A
N76          N78   1.320       .  A
N76         Co92   2.088   1_554  S
N77          C91   1.342       .  A
N78         N106   1.325       .  A
N78         Co96   2.088   1_554  S
H79         C102   1.082       .  S
H80          C97   1.081       .  S
N82         Co96   2.101   1_655  S
N83          N95   1.326       .  A
N83          N99   1.320       .  A
N83         Co92   2.087   1_554  S
C84          N88   1.351       .  A
C84          C98   1.461       .  S
C84         C865   1.479       .  S
C85         C104   1.461       .  S
C85          H89   1.081       .  S
N86          C97   1.340       .  A
N86         Co96   2.086   1_654  S
C90         N106   1.350       .  A
C90         C102   1.463       .  S
C90         C730   1.487       .  S
Co92       Cl103   2.446       .  S
N93         C104   1.355       .  A
C94         C850   1.478       .  S
Co96       Cl103   2.459       .  S
C104        C778   1.491       .  S
C107        C108   1.534       .  S
C107        C113   1.549       .  S
C107        C111   1.535       .  S
C107        C673   1.546       .  S
C108        H115   1.086       .  S
C108        C109   1.367       .  D
C109        C110   1.543       .  S
C109       C1018   1.494       .  S
C110        C114   1.538       .  S
C110        C112   1.542       .  S
C110        H116   1.108       .  S
C111        H117   1.086       .  S
C111        C112   1.366       .  D
C112        C658   1.491       .  S
C113        H118   1.080       .  S
C113        C114   1.369       .  D
C114        C874   1.488       .  S
C119        N137   1.352       .  A
C119        C156   1.460       .  S
C119        C586   1.481       .  S
N120        N137   1.326       .  A
N120        N142   1.319       .  A
N120       Co157   2.089   1_546  S
C121        N146   1.340       .  A
C121        C159   1.463       .  S
C121        H166   1.081       .  S
H122        C163   1.081       .  S
C123        N147   1.341       .  A
C123        C127   1.462       .  S
C123        H152   1.081       .  S
Co124       N142   2.078   1_554  S
Co124       N132   2.091   1_554  S
Co124       N164   2.091       .  S
Co124       N140   2.085       .  S
Co124      Cl168   2.457   1_545  S
N125        C163   1.342       .  A
N125        N132   1.319       .  A
N125       Co126   2.092   1_546  S
Co126       N129   2.083   1_554  S
Co126       N146   2.086   1_565  S
Co126       N133   2.085       .  S
Co126      Cl168   2.448       .  S
C127        N165   1.350       .  A
C127        C553   1.481       .  S
N128        N135   1.321       .  A
N128        N158   1.327       .  A
N128       Co161   2.092   1_556  S
N129        N147   1.320       .  A
N129        N165   1.324       .  A
N130        C159   1.351       .  A
N130        N140   1.325       .  A
H131        C156   1.082       .  S
N132        N153   1.326       .  A
N133        N151   1.321       .  A
N133        N138   1.324       .  A
C134        N138   1.349       .  A
C134        C162   1.466       .  S
C134        C601   1.482       .  S
N135        C150   1.341       .  A
N135       Co157   2.091   1_556  S
C136        N164   1.342       .  A
C136        C139   1.466       .  S
C136        H170   1.081       .  S
C139        N160   1.352       .  A
C139        C505   1.494       .  S
N140        N146   1.320       .  A
N141        C167   1.340       .  A
N141        N143   1.319       .  A
N141       Co157   2.086       .  S
N142        C156   1.338       .  A
N143        N171   1.326       .  A
N143       Co161   2.094       .  S
H144        C167   1.081       .  S
H145        C162   1.081       .  S
N147       Co161   2.088   1_556  S
N148        N160   1.325       .  A
N148        N164   1.320       .  A
N148       Co157   2.092   1_545  S
C149        N153   1.352       .  A
C149        C163   1.467       .  S
C149        C682   1.491       .  S
C150        C169   1.460       .  S
C150        H154   1.082       .  S
N151        C162   1.345       .  A
N151       Co161   2.100       .  S
C155        N171   1.354       .  A
C155        C167   1.466       .  S
C155        C529   1.498       .  S
Co157      Cl168   2.449       .  S
N158        C169   1.351       .  A
C159        C481   1.483       .  S
Co161      Cl168   2.460       .  S
C169        C634   1.481       .  S
C172        C173   1.534       .  S
C172        C178   1.535       .  S
C172        C176   1.549       .  S
C172        C457   1.545       .  S
C173        H180   1.087       .  S
C173        C174   1.364       .  D
C174        C175   1.540       .  S
C174        C769   1.487       .  S
C175        C179   1.543       .  S
C175        C177   1.541       .  S
C175        H181   1.109       .  S
C176        H182   1.080       .  S
C176        C177   1.370       .  D
C177        C625   1.491       .  S
C178        H183   1.086       .  S
C178        C179   1.367       .  D
C179       C1042   1.492       .  S
C184        N202   1.352       .  A
C184        C221   1.464       .  S
C184        C442   1.486       .  S
N185        N202   1.325       .  A
N185        N207   1.321       .  A
N185       Co222   2.089       .  S
C186        N211   1.338       .  A
C186        C224   1.461       .  S
C186        H231   1.081       .  S
H187        C228   1.081       .  S
C188        N212   1.342       .  A
C188        C192   1.461       .  S
C188        H217   1.082       .  S
Co189       N207   2.094       .  S
Co189       N197   2.086       .  S
Co189       N229   2.080   1_545  S
Co189       N205   2.093   1_545  S
Co189      Cl233   2.454   1_655  S
N190        C228   1.340       .  A
N190        N197   1.321       .  A
N190       Co191   2.090   1_655  S
Co191       N194   2.082       .  S
Co191       N211   2.076   1_445  S
Co191       N198   2.094   1_545  S
Co191      Cl233   2.451       .  S
C192        N230   1.350       .  A
C192        C322   1.478       .  S
N193        N200   1.320       .  A
N193        N223   1.321       .  A
N193       Co226   2.068       .  S
N194        N212   1.319       .  A
N194        N230   1.325       .  A
N195        C224   1.353       .  A
N195        N205   1.326       .  A
H196        C221   1.082       .  S
N197        N218   1.325       .  A
N198        N216   1.318       .  A
N198        N203   1.326       .  A
C199        N203   1.354       .  A
C199        C227   1.463       .  S
C199        C466   1.489       .  S
N200        C215   1.343       .  A
N200       Co222   2.098   1_455  S
C201        N229   1.338       .  A
C201        C204   1.465       .  S
C201        H235   1.081       .  S
C204        N225   1.353       .  A
C204        C418   1.494       .  S
N205        N211   1.319       .  A
N206        C232   1.341       .  A
N206        N208   1.318       .  A
N206       Co222   2.085   1_465  S
N207        C221   1.343       .  A
N208        N236   1.323       .  A
N208       Co226   2.081   1_565  S
H209        C232   1.080       .  S
H210        C227   1.081       .  S
N212       Co226   2.086       .  S
N213        N225   1.325       .  A
N213        N229   1.319       .  A
N213       Co222   2.095   1_565  S
C214        N218   1.351       .  A
C214        C228   1.463       .  S
C214        C649   1.484       .  S
C215        C234   1.467       .  S
C215        H219   1.081       .  S
N216        C227   1.339       .  A
N216       Co226   2.080   1_565  S
C220        N236   1.351       .  A
C220        C232   1.465       .  S
C220        C394   1.486       .  S
Co222      Cl233   2.453   1_655  S
N223        C234   1.346       .  A
C224        C370   1.485       .  S
Co226      Cl233   2.449       .  S
C234        C337   1.477       .  S
C237        C238   1.538       .  S
C237        C243   1.544       .  S
C237        C241   1.535       .  S
C237        C985   1.544       .  S
C238        H245   1.086       .  S
C238        C239   1.367       .  D
C239        C240   1.545       .  S
C239        C610   1.491       .  S
C240        C244   1.539       .  S
C240        C242   1.546       .  S
C240        H246   1.109       .  S
C241        H247   1.086       .  S
C241        C242   1.370       .  D
C242        C754   1.495       .  S
C243        H248   1.080       .  S
C243        C244   1.360       .  D
C244        C409   1.483       .  S
C249        C250   1.546       .  S
C249        C255   1.540       .  S
C249        C253   1.539       .  S
C249        C697   1.547       .  S
C250        H257   1.079       .  S
C250        C251   1.360       .  D
C251        C252   1.538       .  S
C251        C346   1.476       .  S
C252        C256   1.545       .  S
C252        C254   1.534       .  S
C252        H258   1.108       .  S
C253        H259   1.086       .  S
C253        C254   1.367       .  D
C254       C1057   1.484       .  S
C255        H260   1.086       .  S
C255        C256   1.373       .  D
C256        C514   1.502       .  S
C261        C262   1.550       .  S
C261        C267   1.536       .  S
C261        C265   1.538       .  S
C261        C841   1.544       .  S
C262        H269   1.080       .  S
C262        C263   1.366       .  D
C263        C264   1.534       .  S
C263        C946   1.487       .  S
C264        C268   1.541       .  S
C264        C266   1.537       .  S
C264        H270   1.110       .  S
C265        H271   1.086       .  S
C265        C266   1.365       .  D
C266        C433   1.483       .  S
C267        H272   1.086       .  S
C267        C268   1.366       .  D
C268        C490   1.484       .  S
C273        C274   1.533       .  S
C273        C279   1.548       .  S
C273        C277   1.537       .  S
C273        C961   1.539       .  S
C274        H281   1.087       .  S
C274        C275   1.362       .  D
C275        C276   1.540       .  S
C275        C721   1.480       .  S
C276        C280   1.540       .  S
C276        C278   1.542       .  S
C276        H282   1.110       .  S
C277        H283   1.086       .  S
C277        C278   1.365       .  D
C278        C538   1.489       .  S
C279        H284   1.080       .  S
C279        C280   1.367       .  D
C280        C385   1.487       .  S
C285        C286   1.538       .  S
C285        C291   1.533       .  S
C285        C289   1.550       .  S
C285        C577   1.546       .  S
C286        H293   1.086       .  S
C286        C287   1.368       .  D
C287        C288   1.540       .  S
C287        C313   1.498       .  S
C288        C292   1.546       .  S
C288        C290   1.539       .  S
C288        H294   1.103       .  S
C289        H295   1.078       .  S
C289        C290   1.373       .  D
C290        C913   1.501       .  S
C291        H296   1.086       .  S
C291        C292   1.361       .  D
C292        C826   1.478       .  S
C297        C298   1.534       .  S
C297        C303   1.541       .  S
C297        C301   1.550       .  S
C297        C361   1.545       .  S
C298        H305   1.086       .  S
C298        C299   1.364       .  D
C299        C300   1.539       .  S
C299        C889   1.481       .  S
C300        C304   1.539       .  S
C300        C302   1.536       .  S
C300        H306   1.111       .  S
C301        H307   1.080       .  S
C301        C302   1.366       .  D
C302        C562   1.485       .  S
C303        H308   1.086       .  S
C303        C304   1.369       .  D
C304        C802   1.489       .  S
C309        H319   1.083       .  S
C309        C310   1.400       .  A
C309        C314   1.406       .  A
C310        C315   1.482       .  S
C310        C311   1.410       .  A
C311        C312   1.399       .  A
C311        S316   1.804       .  S
C312        H317   1.084       .  S
C312        C313   1.408       .  A
C313        C314   1.418       .  A
C314        S318   1.803       .  S
C315        C320   1.409       .  A
C315        C324   1.403       .  A
S316        H332   1.405       .  S
S318        H329   1.406       .  S
C320        C321   1.402       .  A
C320        S325   1.807       .  S
C321        H326   1.083       .  S
C321        C322   1.403       .  A
C322        C323   1.414       .  A
C323        C324   1.403       .  A
C323        S327   1.804       .  S
C324        H328   1.084       .  S
S325        H330   1.407       .  S
S327        H331   1.407       .  S
C333        H343   1.084       .  S
C333        C334   1.401       .  A
C333        C338   1.396       .  A
C334        C339   1.475       .  S
C334        C335   1.410       .  A
C335        C336   1.399       .  A
C335        S340   1.805       .  S
C336        H341   1.084       .  S
C336        C337   1.407       .  A
C337        C338   1.410       .  A
C338        S342   1.797       .  S
C339        C344   1.409       .  A
C339        C348   1.400       .  A
S340        H356   1.406       .  S
S342        H353   1.407       .  S
C344        C345   1.401       .  A
C344        S349   1.807       .  S
C345        H350   1.082       .  S
C345        C346   1.401       .  A
C346        C347   1.417       .  A
C347        C348   1.398       .  A
C347        S351   1.807       .  S
C348        H352   1.084       .  S
S349        H354   1.407       .  S
S351        H355   1.399       .  S
C357        H367   1.083       .  S
C357        C358   1.398       .  A
C357        C362   1.404       .  A
C358        C363   1.483       .  S
C358        C359   1.408       .  A
C359        C360   1.399       .  A
C359        S364   1.807       .  S
C360        H365   1.074       .  S
C360        C361   1.415       .  A
C361        C362   1.426       .  A
C362        S366   1.809       .  S
C363        C368   1.409       .  A
C363        C372   1.403       .  A
S364        H380   1.405       .  S
S366        H377   1.407       .  S
C368        C369   1.402       .  A
C368        S373   1.808       .  S
C369        H374   1.081       .  S
C369        C370   1.407       .  A
C370        C371   1.415       .  A
C371        C372   1.402       .  A
C371        S375   1.803       .  S
C372        H376   1.084       .  S
S373        H378   1.407       .  S
S375        H379   1.407       .  S
C381        H391   1.083       .  S
C381        C382   1.402       .  A
C381        C386   1.403       .  A
C382        C387   1.482       .  S
C382        C383   1.412       .  A
C383        C384   1.397       .  A
C383        S388   1.805       .  S
C384        H389   1.084       .  S
C384        C385   1.405       .  A
C385        C386   1.414       .  A
C386        S390   1.804       .  S
C387        C392   1.409       .  A
C387        C396   1.401       .  A
S388        H404   1.406       .  S
S390        H401   1.406       .  S
C392        C393   1.400       .  A
C392        S397   1.808       .  S
C393        H398   1.083       .  S
C393        C394   1.406       .  A
C394        C395   1.418       .  A
C395        C396   1.404       .  A
C395        S399   1.807       .  S
C396        H400   1.083       .  S
S397        H402   1.407       .  S
S399        H403   1.407       .  S
C405        H415   1.084       .  S
C405        C406   1.401       .  A
C405        C410   1.399       .  A
C406        C411   1.479       .  S
C406        C407   1.412       .  A
C407        C408   1.401       .  A
C407        S412   1.805       .  S
C408        H413   1.074       .  S
C408        C409   1.402       .  A
C409        C410   1.415       .  A
C410        S414   1.803       .  S
C411        C416   1.405       .  A
C411        C420   1.399       .  A
S412        H428   1.404       .  S
S414        H425   1.404       .  S
C416        C417   1.401       .  A
C416        S421   1.807       .  S
C417        H422   1.080       .  S
C417        C418   1.410       .  A
C418        C419   1.421       .  A
C419        C420   1.405       .  A
C419        S423   1.808       .  S
C420        H424   1.083       .  S
S421        H426   1.407       .  S
S423        H427   1.407       .  S
C429        H439   1.084       .  S
C429        C430   1.404       .  A
C429        C434   1.400       .  A
C430        C435   1.486       .  S
C430        C431   1.415       .  A
C431        C432   1.402       .  A
C431        S436   1.804       .  S
C432        H437   1.084       .  S
C432        C433   1.404       .  A
C433        C434   1.412       .  A
C434        S438   1.803       .  S
C435        C440   1.411       .  A
C435        C444   1.401       .  A
S436        H452   1.405       .  S
S438        H449   1.407       .  S
C440        C441   1.407       .  A
C440        S445   1.806       .  S
C441        H446   1.082       .  S
C441        C442   1.407       .  A
C442        C443   1.413       .  A
C443        C444   1.400       .  A
C443        S447   1.798       .  S
C444        H448   1.084       .  S
S445        H450   1.407       .  S
S447        H451   1.407       .  S
C453        H463   1.083       .  S
C453        C454   1.398       .  A
C453        C458   1.407       .  A
C454        C459   1.485       .  S
C454        C455   1.409       .  A
C455        C456   1.400       .  A
C455        S460   1.806       .  S
C456        H461   1.075       .  S
C456        C457   1.413       .  A
C457        C458   1.428       .  A
C458        S462   1.812       .  S
C459        C464   1.408       .  A
C459        C468   1.403       .  A
S460        H476   1.406       .  S
S462        H473   1.406       .  S
C464        C465   1.402       .  A
C464        S469   1.807       .  S
C465        H470   1.081       .  S
C465        C466   1.408       .  A
C466        C467   1.415       .  A
C467        C468   1.407       .  A
C467        S471   1.808       .  S
C468        H472   1.082       .  S
S469        H474   1.407       .  S
S471        H475   1.407       .  S
C477        H487   1.083       .  S
C477        C478   1.401       .  A
C477        C482   1.402       .  A
C478        C483   1.481       .  S
C478        C479   1.412       .  A
C479        C480   1.401       .  A
C479        S484   1.804       .  S
C480        H485   1.084       .  S
C480        C481   1.405       .  A
C481        C482   1.416       .  A
C482        S486   1.808       .  S
C483        C488   1.409       .  A
C483        C492   1.401       .  A
S484        H500   1.405       .  S
S486        H497   1.407       .  S
C488        C489   1.404       .  A
C488        S493   1.806       .  S
C489        H494   1.083       .  S
C489        C490   1.403       .  A
C490        C491   1.417       .  A
C491        C492   1.399       .  A
C491        S495   1.805       .  S
C492        H496   1.084       .  S
S493        H498   1.407       .  S
S495        H499   1.406       .  S
C501        H511   1.084       .  S
C501        C502   1.401       .  A
C501        C506   1.401       .  A
C502        C507   1.487       .  S
C502        C503   1.412       .  A
C503        C504   1.403       .  A
C503        S508   1.804       .  S
C504        H509   1.083       .  S
C504        C505   1.408       .  A
C505        C506   1.420       .  A
C506        S510   1.801       .  S
C507        C512   1.408       .  A
C507        C516   1.401       .  A
S508        H524   1.405       .  S
S510        H521   1.408       .  S
C512        C513   1.404       .  A
C512        S517   1.807       .  S
C513        H518   1.082       .  S
C513        C514   1.409       .  A
C514        C515   1.419       .  A
C515        C516   1.407       .  A
C515        S519   1.802       .  S
C516        H520   1.083       .  S
S517        H522   1.407       .  S
S519        H523   1.407       .  S
C525        H535   1.084       .  S
C525        C526   1.401       .  A
C525        C530   1.405       .  A
C526        C531   1.485       .  S
C526        C527   1.409       .  A
C527        C528   1.401       .  A
C527        S532   1.805       .  S
C528        H533   1.081       .  S
C528        C529   1.411       .  A
C529        C530   1.420       .  A
C530        S534   1.805       .  S
C531        C536   1.411       .  A
C531        C540   1.400       .  A
S532        H548   1.406       .  S
S534        H545   1.408       .  S
C536        C537   1.406       .  A
C536        S541   1.805       .  S
C537        H542   1.082       .  S
C537        C538   1.404       .  A
C538        C539   1.419       .  A
C539        C540   1.399       .  A
C539        S543   1.805       .  S
C540        H544   1.084       .  S
S541        H546   1.407       .  S
S543        H547   1.406       .  S
C549        H559   1.084       .  S
C549        C550   1.402       .  A
C549        C554   1.400       .  A
C550        C555   1.484       .  S
C550        C551   1.414       .  A
C551        C552   1.400       .  A
C551        S556   1.805       .  S
C552        H557   1.084       .  S
C552        C553   1.404       .  A
C553        C554   1.417       .  A
C554        S558   1.801       .  S
C555        C560   1.410       .  A
C555        C564   1.402       .  A
S556        H572   1.406       .  S
S558        H569   1.407       .  S
C560        C561   1.402       .  A
C560        S565   1.807       .  S
C561        H566   1.083       .  S
C561        C562   1.404       .  A
C562        C563   1.412       .  A
C563        C564   1.404       .  A
C563        S567   1.804       .  S
C564        H568   1.083       .  S
S565        H570   1.407       .  S
S567        H571   1.406       .  S
C573        H583   1.082       .  S
C573        C574   1.399       .  A
C573        C578   1.407       .  A
C574        C579   1.483       .  S
C574        C575   1.408       .  A
C575        C576   1.399       .  A
C575        S580   1.807       .  S
C576        H581   1.072       .  S
C576        C577   1.415       .  A
C577        C578   1.427       .  A
C578        S582   1.811       .  S
C579        C584   1.409       .  A
C579        C588   1.403       .  A
S580        H596   1.405       .  S
S582        H593   1.407       .  S
C584        C585   1.402       .  A
C584        S589   1.807       .  S
C585        H590   1.082       .  S
C585        C586   1.406       .  A
C586        C587   1.415       .  A
C587        C588   1.402       .  A
C587        S591   1.803       .  S
C588        H592   1.084       .  S
S589        H594   1.407       .  S
S591        H595   1.407       .  S
C597        H607   1.084       .  S
C597        C598   1.404       .  A
C597        C602   1.403       .  A
C598        C603   1.484       .  S
C598        C599   1.412       .  A
C599        C600   1.402       .  A
C599        S604   1.805       .  S
C600        H605   1.084       .  S
C600        C601   1.406       .  A
C601        C602   1.413       .  A
C602        S606   1.803       .  S
C603        C608   1.410       .  A
C603        C612   1.400       .  A
S604        H620   1.405       .  S
S606        H617   1.407       .  S
C608        C609   1.407       .  A
C608        S613   1.806       .  S
C609        H614   1.072       .  S
C609        C610   1.404       .  A
C610        C611   1.417       .  A
C611        C612   1.399       .  A
C611        S615   1.801       .  S
C612        H616   1.083       .  S
S613        H618   1.407       .  S
S615        H619   1.405       .  S
C621        H631   1.084       .  S
C621        C622   1.404       .  A
C621        C626   1.399       .  A
C622        C627   1.491       .  S
C622        C623   1.415       .  A
C623        C624   1.404       .  A
C623        S628   1.803       .  S
C624        H629   1.084       .  S
C624        C625   1.405       .  A
C625        C626   1.416       .  A
C626        S630   1.804       .  S
C627        C632   1.413       .  A
C627        C636   1.404       .  A
S628        H644   1.405       .  S
S630        H641   1.406       .  S
C632        C633   1.404       .  A
C632        S637   1.807       .  S
C633        H638   1.083       .  S
C633        C634   1.403       .  A
C634        C635   1.415       .  A
C635        C636   1.403       .  A
C635        S639   1.802       .  S
C636        H640   1.084       .  S
S637        H642   1.407       .  S
S639        H643   1.407       .  S
C645        H655   1.084       .  S
C645        C646   1.400       .  A
C645        C650   1.398       .  A
C646        C651   1.479       .  S
C646        C647   1.411       .  A
C647        C648   1.403       .  A
C647        S652   1.804       .  S
C648        H653   1.084       .  S
C648        C649   1.406       .  A
C649        C650   1.418       .  A
C650        S654   1.801       .  S
C651        C656   1.407       .  A
C651        C660   1.401       .  A
S652        H668   1.405       .  S
S654        H665   1.408       .  S
C656        C657   1.400       .  A
C656        S661   1.806       .  S
C657        H662   1.083       .  S
C657        C658   1.406       .  A
C658        C659   1.416       .  A
C659        C660   1.401       .  A
C659        S663   1.797       .  S
C660        H664   1.084       .  S
S661        H666   1.407       .  S
S663        H667   1.405       .  S
C669        H679   1.083       .  S
C669        C670   1.399       .  A
C669        C674   1.406       .  A
C670        C675   1.490       .  S
C670        C671   1.411       .  A
C671        C672   1.401       .  A
C671        S676   1.806       .  S
C672        H677   1.074       .  S
C672        C673   1.413       .  A
C673        C674   1.428       .  A
C674        S678   1.812       .  S
C675        C680   1.411       .  A
C675        C684   1.401       .  A
S676        H692   1.406       .  S
S678        H689   1.406       .  S
C680        C681   1.408       .  A
C680        S685   1.806       .  S
C681        H686   1.083       .  S
C681        C682   1.408       .  A
C682        C683   1.419       .  A
C683        C684   1.400       .  A
C683        S687   1.800       .  S
C684        H688   1.084       .  S
S685        H690   1.407       .  S
S687        H691   1.407       .  S
C693        H703   1.083       .  S
C693        C694   1.398       .  A
C693        C698   1.406       .  A
C694        C699   1.482       .  S
C694        C695   1.406       .  A
C695        C696   1.399       .  A
C695        S700   1.806       .  S
C696        H701   1.073       .  S
C696        C697   1.416       .  A
C697        C698   1.426       .  A
C698        S702   1.808       .  S
C699        C704   1.409       .  A
C699        C708   1.400       .  A
S700        H716   1.406       .  S
S702        H713   1.407       .  S
C704        C705   1.406       .  A
C704        S709   1.805       .  S
C705        H710   1.083       .  S
C705        C706   1.405       .  A
C706        C707   1.415       .  A
C707        C708   1.402       .  A
C707        S711   1.807       .  S
C708        H712   1.083       .  S
S709        H714   1.407       .  S
S711        H715   1.407       .  S
C717        H727   1.084       .  S
C717        C718   1.401       .  A
C717        C722   1.399       .  A
C718        C723   1.481       .  S
C718        C719   1.415       .  A
C719        C720   1.403       .  A
C719        S724   1.804       .  S
C720        H725   1.084       .  S
C720        C721   1.402       .  A
C721        C722   1.410       .  A
C722        S726   1.798       .  S
C723        C728   1.408       .  A
C723        C732   1.400       .  A
S724        H740   1.404       .  S
S726        H737   1.404       .  S
C728        C729   1.404       .  A
C728        S733   1.806       .  S
C729        H734   1.082       .  S
C729        C730   1.406       .  A
C730        C731   1.419       .  A
C731        C732   1.401       .  A
C731        S735   1.801       .  S
C732        H736   1.084       .  S
S733        H738   1.407       .  S
S735        H739   1.407       .  S
C741        H751   1.084       .  S
C741        C742   1.404       .  A
C741        C746   1.400       .  A
C742        C747   1.486       .  S
C742        C743   1.414       .  A
C743        C744   1.400       .  A
C743        S748   1.805       .  S
C744        H749   1.084       .  S
C744        C745   1.405       .  A
C745        C746   1.414       .  A
C746        S750   1.803       .  S
C747        C752   1.409       .  A
C747        C756   1.403       .  A
S748        H764   1.406       .  S
S750        H761   1.407       .  S
C752        C753   1.400       .  A
C752        S757   1.808       .  S
C753        H758   1.082       .  S
C753        C754   1.408       .  A
C754        C755   1.417       .  A
C755        C756   1.406       .  A
C755        S759   1.806       .  S
C756        H760   1.083       .  S
S757        H762   1.407       .  S
S759        H763   1.406       .  S
C765        H775   1.083       .  S
C765        C766   1.403       .  A
C765        C770   1.405       .  A
C766        C771   1.481       .  S
C766        C767   1.410       .  A
C767        C768   1.397       .  A
C767        S772   1.804       .  S
C768        H773   1.084       .  S
C768        C769   1.405       .  A
C769        C770   1.413       .  A
C770        S774   1.805       .  S
C771        C776   1.405       .  A
C771        C780   1.402       .  A
S772        H788   1.406       .  S
S774        H785   1.407       .  S
C776        C777   1.402       .  A
C776        S781   1.808       .  S
C777        H782   1.079       .  S
C777        C778   1.411       .  A
C778        C779   1.417       .  A
C779        C780   1.401       .  A
C779        S783   1.801       .  S
C780        H784   1.084       .  S
S781        H786   1.407       .  S
S783        H787   1.407       .  S
C789        H799   1.084       .  S
C789        C790   1.402       .  A
C789        C794   1.403       .  A
C790        C795   1.489       .  S
C790        C791   1.412       .  A
C791        C792   1.404       .  A
C791        S796   1.804       .  S
C792        H797   1.084       .  S
C792        C793   1.408       .  A
C793        C794   1.419       .  A
C794        S798   1.800       .  S
C795        C800   1.412       .  A
C795        C804   1.402       .  A
S796        H812   1.406       .  S
S798        H809   1.407       .  S
C800        C801   1.408       .  A
C800        S805   1.805       .  S
C801        H806   1.083       .  S
C801        C802   1.405       .  A
C802        C803   1.414       .  A
C803        C804   1.400       .  A
C803        S807   1.801       .  S
C804        H808   1.084       .  S
S805        H810   1.407       .  S
S807        H811   1.407       .  S
C813        H823   1.084       .  S
C813        C814   1.407       .  A
C813        C818   1.402       .  A
C814        C819   1.490       .  S
C814        C815   1.416       .  A
C815        C816   1.398       .  A
C815        S820   1.805       .  S
C816        H821   1.084       .  S
C816        C817   1.403       .  A
C817        C818   1.411       .  A
C818        S822   1.803       .  S
C819        C824   1.413       .  A
C819        C828   1.405       .  A
S820        H836   1.406       .  S
S822        H833   1.406       .  S
C824        C825   1.402       .  A
C824        S829   1.808       .  S
C825        H830   1.082       .  S
C825        C826   1.400       .  A
C826        C827   1.415       .  A
C827        C828   1.400       .  A
C827        S831   1.809       .  S
C828        H832   1.084       .  S
S829        H834   1.407       .  S
S831        H835   1.398       .  S
C837        H847   1.083       .  S
C837        C838   1.398       .  A
C837        C842   1.406       .  A
C838        C843   1.479       .  S
C838        C839   1.405       .  A
C839        C840   1.396       .  A
C839        S844   1.806       .  S
C840        H845   1.074       .  S
C840        C841   1.414       .  A
C841        C842   1.426       .  A
C842        S846   1.811       .  S
C843        C848   1.410       .  A
C843        C852   1.399       .  A
S844        H860   1.406       .  S
S846        H857   1.406       .  S
C848        C849   1.405       .  A
C848        S853   1.806       .  S
C849        H854   1.083       .  S
C849        C850   1.404       .  A
C850        C851   1.416       .  A
C851        C852   1.397       .  A
C851        S855   1.802       .  S
C852        H856   1.084       .  S
S853        H858   1.407       .  S
S855        H859   1.406       .  S
C861        H871   1.084       .  S
C861        C862   1.399       .  A
C861        C866   1.396       .  A
C862        C867   1.478       .  S
C862        C863   1.413       .  A
C863        C864   1.403       .  A
C863        S868   1.804       .  S
C864        H869   1.084       .  S
C864        C865   1.405       .  A
C865        C866   1.415       .  A
C866        S870   1.802       .  S
C867        C872   1.407       .  A
C867        C876   1.403       .  A
S868        H884   1.405       .  S
S870        H881   1.406       .  S
C872        C873   1.399       .  A
C872        S877   1.807       .  S
C873        H878   1.083       .  S
C873        C874   1.405       .  A
C874        C875   1.414       .  A
C875        C876   1.407       .  A
C875        S879   1.806       .  S
C876        H880   1.083       .  S
S877        H882   1.407       .  S
S879        H883   1.407       .  S
C885        H895   1.086       .  S
C885        C886   1.401       .  A
C885        C890   1.397       .  A
C886        C891   1.478       .  S
C886        C887   1.413       .  A
C887        C888   1.400       .  A
C887        S892   1.805       .  S
C888        H893   1.085       .  S
C888        C889   1.403       .  A
C889        C890   1.416       .  A
C890        S894   1.807       .  S
C891        C896   1.409       .  A
C891        C900   1.401       .  A
S892        H908   1.404       .  S
S894        H905   1.403       .  S
C896        C897   1.404       .  A
C896        S901   1.806       .  S
C897        H902   1.082       .  S
C897        C898   1.405       .  A
C898        C899   1.413       .  A
C899        C900   1.397       .  A
C899        S903   1.804       .  S
C900        H904   1.084       .  S
S901        H906   1.407       .  S
S903        H907   1.407       .  S
C909        H919   1.083       .  S
C909        C910   1.398       .  A
C909        C914   1.405       .  A
C910        C915   1.476       .  S
C910        C911   1.407       .  A
C911        C912   1.396       .  A
C911        S916   1.805       .  S
C912        H917   1.083       .  S
C912        C913   1.410       .  A
C913        C914   1.422       .  A
C914        S918   1.805       .  S
C915        C920   1.409       .  A
C915        C924   1.400       .  A
S916        H932   1.405       .  S
S918        H929   1.406       .  S
C920        C921   1.405       .  A
C920        S925   1.805       .  S
C921        H926   1.083       .  S
C921        C922   1.403       .  A
C922        C923   1.413       .  A
C923        C924   1.395       .  A
C923        S927   1.804       .  S
C924        H928   1.084       .  S
S925        H930   1.407       .  S
S927        H931   1.407       .  S
C933        H943   1.084       .  S
C933        C934   1.403       .  A
C933        C938   1.401       .  A
C934        C939   1.480       .  S
C934        C935   1.411       .  A
C935        C936   1.397       .  A
C935        S940   1.805       .  S
C936        H941   1.084       .  S
C936        C937   1.405       .  A
C937        C938   1.415       .  A
C938        S942   1.801       .  S
C939        C944   1.408       .  A
C939        C948   1.403       .  A
S940        H956   1.406       .  S
S942        H953   1.407       .  S
C944        C945   1.399       .  A
C944        S949   1.807       .  S
C945        H950   1.083       .  S
C945        C946   1.405       .  A
C946        C947   1.414       .  A
C947        C948   1.404       .  A
C947        S951   1.806       .  S
C948        H952   1.083       .  S
S949        H954   1.407       .  S
S951        H955   1.406       .  S
C957        H967   1.083       .  S
C957        C958   1.398       .  A
C957        C962   1.402       .  A
C958        C963   1.479       .  S
C958        C959   1.407       .  A
C959        C960   1.399       .  A
C959        S964   1.806       .  S
C960        H965   1.075       .  S
C960        C961   1.414       .  A
C961        C962   1.425       .  A
C962        S966   1.813       .  S
C963        C968   1.408       .  A
C963        C972   1.401       .  A
S964        H980   1.406       .  S
S966        H977   1.406       .  S
C968        C969   1.401       .  A
C968        S973   1.807       .  S
C969        H974   1.082       .  S
C969        C970   1.405       .  A
C970        C971   1.417       .  A
C971        C972   1.398       .  A
C971        S975   1.802       .  S
C972        H976   1.084       .  S
S973        H978   1.407       .  S
S975        H979   1.408       .  S
C981        H991   1.083       .  S
C981        C982   1.397       .  A
C981        C986   1.403       .  A
C982        C987   1.478       .  S
C982        C983   1.406       .  A
C983        C984   1.397       .  A
C983        S988   1.806       .  S
C984        H989   1.074       .  S
C984        C985   1.416       .  A
C985        C986   1.426       .  A
C986        S990   1.808       .  S
C987        C992   1.409       .  A
C987        C996   1.401       .  A
S988       H1004   1.406       .  S
S990       H1001   1.406       .  S
C992        C993   1.401       .  A
C992        S997   1.807       .  S
C993        H998   1.083       .  S
C993        C994   1.405       .  A
C994        C995   1.414       .  A
C995        C996   1.399       .  A
C995        S999   1.803       .  S
C996       H1000   1.084       .  S
S997       H1002   1.407       .  S
S999       H1003   1.407       .  S
C1005      H1015   1.084       .  S
C1005      C1006   1.400       .  A
C1005      C1010   1.399       .  A
C1006      C1011   1.480       .  S
C1006      C1007   1.411       .  A
C1007      C1008   1.398       .  A
C1007      S1012   1.806       .  S
C1008      H1013   1.082       .  S
C1008      C1009   1.408       .  A
C1009      C1010   1.420       .  A
C1010      S1014   1.800       .  S
C1011      C1016   1.408       .  A
C1011      C1020   1.401       .  A
S1012      H1028   1.405       .  S
S1014      H1025   1.406       .  S
C1016      C1017   1.399       .  A
C1016      S1021   1.808       .  S
C1017      H1022   1.082       .  S
C1017      C1018   1.408       .  A
C1018      C1019   1.417       .  A
C1019      C1020   1.401       .  A
C1019      S1023   1.799       .  S
C1020      H1024   1.084       .  S
S1021      H1026   1.407       .  S
S1023      H1027   1.405       .  S
C1029      H1039   1.084       .  S
C1029      C1030   1.404       .  A
C1029      C1034   1.399       .  A
C1030      C1035   1.487       .  S
C1030      C1031   1.413       .  A
C1031      C1032   1.404       .  A
C1031      S1036   1.804       .  S
C1032      H1037   1.084       .  S
C1032      C1033   1.407       .  A
C1033      C1034   1.413       .  A
C1034      S1038   1.804       .  S
C1035      C1040   1.410       .  A
C1035      C1044   1.403       .  A
S1036      H1052   1.405       .  S
S1038      H1049   1.407       .  S
C1040      C1041   1.402       .  A
C1040      S1045   1.807       .  S
C1041      H1046   1.083       .  S
C1041      C1042   1.405       .  A
C1042      C1043   1.415       .  A
C1043      C1044   1.407       .  A
C1043      S1047   1.804       .  S
C1044      H1048   1.083       .  S
S1045      H1050   1.407       .  S
S1047      H1051   1.407       .  S
C1053      H1063   1.084       .  S
C1053      C1054   1.402       .  A
C1053      C1058   1.397       .  A
C1054      C1059   1.480       .  S
C1054      C1055   1.413       .  A
C1055      C1056   1.398       .  A
C1055      S1060   1.806       .  S
C1056      H1061   1.081       .  S
C1056      C1057   1.404       .  A
C1057      C1058   1.413       .  A
C1058      S1062   1.801       .  S
C1059      C1064   1.410       .  A
C1059      C1068   1.403       .  A
S1060      H1076   1.405       .  S
S1062      H1073   1.407       .  S
C1064      C1065   1.402       .  A
C1064      S1069   1.808       .  S
C1065      H1070   1.083       .  S
C1065      C1066   1.405       .  A
C1066      C1067   1.411       .  A
C1067      C1068   1.398       .  A
C1067      S1071   1.804       .  S
C1068      H1072   1.084       .  S
S1069      H1074   1.407       .  S
S1071      H1075   1.406       .  S
