geometry optimzed in LAMMPS
_audit_creation_date              2020-11-30 
_audit_creation_method            'lammps2cif' 
_symmetry_space_group_name_H-M    'P1' 
_symmetry_Int_Tables_number       1 
_symmetry_cell_setting            triclinic 
loop_ 
_symmetry_equiv_pos_as_xyz 
  x,y,z 
_cell_length_a                    25.56395648 
_cell_length_b                    25.460211171629766 
_cell_length_c                    25.3602642351383 
_cell_angle_alpha                 90.0576577357482 
_cell_angle_beta                  90.28248763152556 
_cell_angle_gamma                 89.8223718949338 
loop_ 
_atom_site_label 
_atom_site_type_symbol 
_atom_site_fract_x 
_atom_site_fract_y 
_atom_site_fract_z 
_atom_site_charge 
C1          C  0.29712265  0.30307648  0.29902948    -0.01600
C2          C  0.42074594  0.05747629  0.31446628    -0.01600
C3          C  0.05670022  0.30207534  0.41596470    -0.01600
C4          C  0.16516468  0.17402777  0.16478088    -0.01600
C5          C  0.31029351  0.41964130  0.05792751    -0.01600
C6          C  0.42388369  0.17215854  0.05182716    -0.01600
C7          C  0.17362353  0.04691403  0.42278651    -0.01600
C8          C  0.05321294  0.42637423  0.17962492    -0.01600
Zn9        Zn  0.50442144  0.05370425  0.46178961     1.49700
Zn10       Zn  0.05728261  0.44871515  0.50369106     1.49400
Zn11       Zn  0.45977930  0.50063917  0.06203758     1.49100
Zn12       Zn  0.44743214  0.44141328  0.44891765     1.49500
O13         O  0.49099545  0.48470695  0.49241469    -1.83300
O14         O  0.07936470  0.06557857  0.43401395    -0.73900
O15         O  0.06482439  0.42363850  0.08192587    -0.73700
O16         O  0.42643722  0.07545826  0.06860262    -0.73200
O17         O  0.11155690  0.49284718  0.46912944    -0.73900
O18         O  0.48235910  0.10825391  0.51222657    -0.73500
O19         O  0.51961561  0.48959567  0.11383973    -0.74100
O20         O  0.38644095  0.42203970  0.49936569    -0.73500
O21         O  0.06682384  0.38442773  0.46170175    -0.74200
O22         O  0.39760025  0.45397808  0.07942536    -0.73600
O23         O  0.48965583  0.37289423  0.42407488    -0.74100
O24         O  0.42318970  0.49040004  0.38453437    -0.74000
O25         O  0.45893306  0.06850545  0.40025199    -0.73800
C26         C  0.11784992  0.03478774  0.44205131     0.78000
C27         C  0.04488669  0.44684594  0.12162007     0.78500
C28         C  0.44489196  0.11507755  0.04485736     0.77500
C29         C  0.36932919  0.42941326  0.04623104     0.77800
C30         C  0.03699953  0.35723887  0.43284019     0.79000
C31         C  0.43133444  0.03884844  0.37138946     0.78000
Zn32       Zn  0.20601886  0.49801346  0.17197532     1.49700
Zn33       Zn  0.30743277  0.45792040  0.23286253     1.49400
Zn34       Zn  0.24903083  0.06086864  0.27142131     1.49100
Zn35       Zn  0.19447707  0.44269115  0.28237170     1.49500
O36         O  0.23842867  0.49019876  0.24082937    -1.83300
O37         O  0.24517099  0.44598180  0.12278262    -0.73900
O38         O  0.35802653  0.49615186  0.27976361    -0.73700
O39         O  0.21431337  0.11785294  0.22655205    -0.73200
O40         O  0.32660135  0.44445433  0.15300442    -0.73900
O41         O  0.18663810  0.07795698  0.15439984    -0.73500
O42         O  0.32673985  0.07599630  0.29392519    -0.74100
O43         O  0.16723884  0.48785797  0.34662768    -0.73500
O44         O  0.31274750  0.38828224  0.26470418    -0.74200
O45         O  0.21029254  0.06347198  0.33814766    -0.73600
O46         O  0.23960114  0.37905025  0.30997734    -0.74100
O47         O  0.13345334  0.41199361  0.23356191    -0.74000
O48         O  0.13525401  0.46970984  0.16929642    -0.73800
C49         C  0.29368258  0.43535104  0.11562701     0.78000
C50         C  0.36410270  0.04252935  0.29779224     0.78500
C51         C  0.18947739  0.11978304  0.18264759     0.77500
C52         C  0.18058532  0.03342238  0.36434319     0.77800
C53         C  0.28444426  0.36152239  0.29523984     0.79000
C54         C  0.11153273  0.43372446  0.19359683     0.78000
Zn55       Zn  0.30590182  0.26995321  0.47366337     1.49700
Zn56       Zn  0.20561794  0.21803822  0.41576681     1.49400
Zn57       Zn  0.25284702  0.16646458  0.01763576     1.49100
Zn58       Zn  0.19594061  0.28293879  0.02479477     1.49500
O59         O  0.23933541  0.23544672  0.48435139    -1.83300
O60         O  0.31343453  0.29126400  0.39473518    -0.73900
O61         O  0.17601891  0.14328520  0.41038528    -0.73700
O62         O  0.32922305  0.15202796  0.04276727    -0.73200
O63         O  0.25455617  0.23965125  0.35742395    -0.73900
O64         O  0.35918985  0.22548952  0.00853405    -0.73500
O65         O  0.22993698  0.10999426  0.46867105    -0.74100
O66         O  0.16692275  0.23472269  0.08836829    -0.73500
O67         O  0.13938495  0.25688669  0.40247038    -0.74200
O68         O  0.20791532  0.15757000  0.08141505    -0.73600
O69         O  0.13631142  0.30823190  0.47216628    -0.74100
O70         O  0.24152075  0.35012300  0.05130723    -0.74000
O71         O  0.31862753  0.33519367  0.01529704    -0.73800
C72         C  0.28802759  0.27671224  0.35377009     0.78000
C73         C  0.19349490  0.10361567  0.43469474     0.78500
C74         C  0.36718330  0.18296334  0.03396164     0.77500
C75         C  0.17691916  0.18785625  0.10612043     0.78200
C76         C  0.11539774  0.29103451  0.42937902     0.79000
C77         C  0.28947409  0.36404095  0.04326382     0.78000
Zn78       Zn  0.41612838  0.20179294  0.22587299     1.49700
Zn79       Zn  0.01268500  0.25581795  0.16680076     1.49400
Zn80       Zn  0.46885090  0.30719651  0.26935685     1.49100
Zn81       Zn  0.02878288  0.19353213  0.27607356     1.49500
O82         O  0.48270698  0.23892453  0.23604615    -1.83300
O83         O  0.40995628  0.17364008  0.14874081    -0.73900
O84         O  0.04129187  0.33176826  0.16017475    -0.73700
O85         O  0.39170724  0.31850267  0.28955580    -0.73200
O86         O  0.45452674  0.23894213  0.11416083    -0.73900
O87         O  0.35861267  0.24464623  0.25722414    -0.73500
O88         O  0.99855280  0.36513194  0.22719387    -0.74100
O89         O  0.05715724  0.24268579  0.33879583    -0.73500
O90         O  0.07959203  0.21481194  0.15144793    -0.74200
O91         O  0.01030296  0.31631341  0.33447662    -0.73600
O92         O  0.08701879  0.16434839  0.22189558    -0.74100
O93         O  0.48485214  0.12984981  0.30790989    -0.74000
O94         O  0.40740293  0.13936614  0.27006891    -0.73800
C95         C  0.42984036  0.19558342  0.10835876     0.78000
C96         C  0.03024985  0.37098872  0.18894390     0.78500
C97         C  0.35277424  0.28814697  0.28164683     0.77500
C98         C  0.04427756  0.28821911  0.35769927     0.77800
C99         C  0.10577702  0.18149070  0.17816438     0.79000
C100        C  0.43755549  0.11383400  0.30014588     0.78000
C101        C  0.28267420  0.45668048  0.01836207     0.00700
C102        C  0.25603429  0.50122021  0.03717138    -0.11200
C103        C  0.21250368  0.01860781  0.01087989     0.02900
C104        C  0.20991018  0.01145015  0.45551669     0.00600
C105        C  0.24555820  0.47661176  0.43219443    -0.11100
C106        C  0.27911105  0.44692123  0.46275033     0.02800
H107        H  0.26481263  0.01916414  0.07489189     0.15800
H108        H  0.24830540  0.47164072  0.38998744     0.15800
C109        C  0.31216273  0.41234069  0.43260552     0.37500
C110        C  0.17343905  0.04788894  0.04008498     0.37400
N111        N  0.34073495  0.38918417  0.40603190    -0.42900
N112        N  0.13932522  0.06987412  0.06038271    -0.42900
C113        C  0.02414966  0.26473017  0.44990098     0.00700
C114        C  0.48224627  0.23547239  0.42743483    -0.11200
C115        C  0.45065567  0.20420659  0.45807774     0.02900
C116        C  0.45912712  0.20289262  0.01346890     0.00600
C117        C  0.00841023  0.21887390  0.03092416    -0.11100
C118        C  0.03373692  0.25795281  0.00468894     0.02800
H119        H  0.47135021  0.23774657  0.38629502     0.15800
H120        H  0.02391188  0.20596702  0.06850697     0.15800
C121        C  0.06363786  0.29233637  0.03818068     0.37500
C122        C  0.41097116  0.17355118  0.43102386     0.37400
N123        N  0.08829524  0.31872505  0.06580377    -0.42900
N124        N  0.37835518  0.15012849  0.40974271    -0.42900
C125        C  0.45809428  0.02722437  0.27886130     0.00700
C126        C  0.00496662  0.00629097  0.29957494    -0.11200
C127        C  0.03409174  0.47058773  0.27130401     0.02900
C128        C  0.02172607  0.46168675  0.21729971     0.00600
C129        C  0.47162733  0.47750952  0.20058042    -0.11100
C130        C  0.44621889  0.51772944  0.22520686     0.02800
H131        H  0.01754981  0.01441919  0.33957772     0.15800
H132        H  0.45351305  0.46080540  0.16576472     0.15800
C133        C  0.40601077  0.04493071  0.19521149     0.37500
C134        C  0.06484863  0.43552967  0.30370507     0.37400
N135        N  0.37312248  0.06567247  0.17152361    -0.42900
N136        N  0.08806821  0.40765639  0.33130603    -0.42900
C137        C  0.25810859  0.28293682  0.25764134     0.00700
C138        C  0.20680792  0.27230653  0.27282748    -0.11200
C139        C  0.18207808  0.23047643  0.24939308     0.02900
C140        C  0.19525678  0.21632263  0.19677076     0.00600
C141        C  0.23974578  0.24157313  0.17462902    -0.11100
C142        C  0.26978504  0.27615363  0.20368613     0.02800
H143        H  0.19205921  0.28678471  0.31015865     0.15800
H144        H  0.25403855  0.23280931  0.13552915     0.15800
C145        C  0.31201961  0.30289763  0.17700055     0.37500
C146        C  0.15665777  0.19598973  0.28610666     0.37400
N147        N  0.34618777  0.32339119  0.15553869    -0.42900
N148        N  0.13702784  0.16762692  0.31553649    -0.42900
C149        C  0.29712265  0.30307645  0.79902947    -0.01600
C150        C  0.42074590  0.05747635  0.81446636    -0.01600
C151        C  0.05670018  0.30207537  0.91596472    -0.01600
C152        C  0.16516464  0.17402785  0.66478083    -0.01600
C153        C  0.31029357  0.41964123  0.55792745    -0.01600
C154        C  0.42388365  0.17215860  0.55182706    -0.01600
C155        C  0.17362362  0.04691397  0.92278656    -0.01600
C156        C  0.05321292  0.42637411  0.67962488    -0.01600
Zn157      Zn  0.50442153  0.05370437  0.96178960     1.49700
Zn158      Zn  0.05728265  0.44871525  0.00369114     1.49400
Zn159      Zn  0.45977922  0.50063936  0.56203749     1.49100
Zn160      Zn  0.44743207  0.44141318  0.94891764     1.49500
O161        O  0.49099550  0.48470681  0.99241482    -1.83300
O162        O  0.07936494  0.06557854  0.93401418    -0.73900
O163        O  0.06482427  0.42363836  0.58192581    -0.73700
O164        O  0.42643711  0.07545840  0.56860261    -0.73200
O165        O  0.11155683  0.49284729  0.96912934    -0.73900
O166        O  0.48235922  0.10825390  0.01222665    -0.73500
O167        O  0.51961552  0.48959554  0.61383970    -0.74100
O168        O  0.38644082  0.42203968  0.99936568    -0.73500
O169        O  0.06682374  0.38442777  0.96170187    -0.74200
O170        O  0.39760020  0.45397829  0.57942530    -0.73600
O171        O  0.48965575  0.37289419  0.92407483    -0.74100
O172        O  0.42318958  0.49039995  0.88453427    -0.74000
O173        O  0.45893308  0.06850553  0.90025201    -0.73800
C174        C  0.11785010  0.03478761  0.94205137     0.78000
C175        C  0.04488663  0.44684583  0.62162003     0.78500
C176        C  0.44489187  0.11507763  0.54485728     0.77500
C177        C  0.36932925  0.42941330  0.54623102     0.77800
C178        C  0.03699950  0.35723889  0.93284022     0.79000
C179        C  0.43133438  0.03884853  0.87138952     0.78000
Zn180      Zn  0.20601891  0.49801333  0.67197527     1.49700
Zn181      Zn  0.30743296  0.45792033  0.73286246     1.49400
Zn182      Zn  0.24903074  0.06086865  0.77142133     1.49100
Zn183      Zn  0.19447705  0.44269122  0.78237164     1.49500
O184        O  0.23842885  0.49019875  0.74082929    -1.83300
O185        O  0.24517105  0.44598168  0.62278256    -0.73900
O186        O  0.35802651  0.49615199  0.77976350    -0.73700
O187        O  0.21431329  0.11785300  0.72655202    -0.73200
O188        O  0.32660142  0.44445420  0.65300434    -0.73900
O189        O  0.18663799  0.07795710  0.65439979    -0.73500
O190        O  0.32673972  0.07599632  0.79392550    -0.74100
O191        O  0.16723873  0.48785795  0.84662768    -0.73500
O192        O  0.31274769  0.38828223  0.76470429    -0.74200
O193        O  0.21029251  0.06347189  0.83814769    -0.73600
O194        O  0.23960116  0.37905026  0.80997719    -0.74100
O195        O  0.13345337  0.41199354  0.73356190    -0.74000
O196        O  0.13525408  0.46970966  0.66929635    -0.73800
C197        C  0.29368264  0.43535094  0.61562694     0.78000
C198        C  0.36410262  0.04252940  0.79779233     0.78500
C199        C  0.18947731  0.11978314  0.68264756     0.77500
C200        C  0.18058532  0.03342229  0.86434325     0.77800
C201        C  0.28444433  0.36152238  0.79523984     0.79000
C202        C  0.11153276  0.43372433  0.69359679     0.78000
Zn203      Zn  0.30590178  0.26995319  0.97366336     1.49700
Zn204      Zn  0.20561782  0.21803816  0.91576675     1.49400
Zn205      Zn  0.25284715  0.16646445  0.51763569     1.49100
Zn206      Zn  0.19594059  0.28293888  0.52479472     1.49500
O207        O  0.23933533  0.23544675  0.98435131    -1.83300
O208        O  0.31343442  0.29126406  0.89473519    -0.73900
O209        O  0.17601883  0.14328508  0.91038529    -0.73700
O210        O  0.32922310  0.15202794  0.54276727    -0.73200
O211        O  0.25455622  0.23965115  0.85742393    -0.73900
O212        O  0.35918982  0.22548952  0.50853397    -0.73500
O213        O  0.22993676  0.10999437  0.96867129    -0.74100
O214        O  0.16692279  0.23472274  0.58836825    -0.73500
O215        O  0.13938492  0.25688684  0.90247029    -0.74200
O216        O  0.20791527  0.15756997  0.58141499    -0.73600
O217        O  0.13631140  0.30823186  0.97216635    -0.74100
O218        O  0.24152078  0.35012303  0.55130718    -0.74000
O219        O  0.31862756  0.33519364  0.51529699    -0.73800
C220        C  0.28802756  0.27671222  0.85377008     0.78000
C221        C  0.19349484  0.10361564  0.93469483     0.78500
C222        C  0.36718330  0.18296336  0.53396156     0.77500
C223        C  0.17691914  0.18785629  0.60612038     0.78200
C224        C  0.11539772  0.29103458  0.92937902     0.79000
C225        C  0.28947413  0.36404092  0.54326378     0.78000
Zn226      Zn  0.41612831  0.20179285  0.72587299     1.49700
Zn227      Zn  0.01268493  0.25581783  0.66680071     1.49400
Zn228      Zn  0.46885101  0.30719638  0.76935680     1.49100
Zn229      Zn  0.02878303  0.19353220  0.77607350     1.49500
O230        O  0.48270699  0.23892444  0.73604606    -1.83300
O231        O  0.40995610  0.17364012  0.64874073    -0.73900
O232        O  0.04129187  0.33176809  0.66017487    -0.73700
O233        O  0.39170729  0.31850251  0.78955576    -0.73200
O234        O  0.45452670  0.23894211  0.61416077    -0.73900
O235        O  0.35861258  0.24464611  0.75722415    -0.73500
O236        O  0.99855265  0.36513188  0.72719385    -0.74100
O237        O  0.05715722  0.24268577  0.83879586    -0.73500
O238        O  0.07959194  0.21481185  0.65144786    -0.74200
O239        O  0.01030286  0.31631330  0.83447658    -0.73600
O240        O  0.08701886  0.16434838  0.72189555    -0.74100
O241        O  0.48485216  0.12984985  0.80790980    -0.74000
O242        O  0.40740284  0.13936613  0.77006904    -0.73800
C243        C  0.42984026  0.19558344  0.60835869     0.78000
C244        C  0.03024980  0.37098860  0.68894394     0.78500
C245        C  0.35277423  0.28814686  0.78164682     0.77500
C246        C  0.04427748  0.28821907  0.85769928     0.77800
C247        C  0.10577700  0.18149068  0.67816432     0.79000
C248        C  0.43755549  0.11383403  0.80014593     0.78000
C249        C  0.28267425  0.45668038  0.51836202     0.00700
C250        C  0.25603436  0.50122011  0.53717133    -0.11200
C251        C  0.21250364  0.01860776  0.51087988     0.02900
C252        C  0.20991026  0.01145016  0.95551671     0.00600
C253        C  0.24555803  0.47661178  0.93219449    -0.11100
C254        C  0.27911095  0.44692130  0.96275038     0.02800
H255        H  0.26481245  0.01916405  0.57489202     0.15800
H256        H  0.24830510  0.47164060  0.88998753     0.15800
C257        C  0.31216260  0.41234076  0.93260553     0.37500
C258        C  0.17343903  0.04788889  0.54008495     0.37400
N259        N  0.34073484  0.38918434  0.90603181    -0.42900
N260        N  0.13932517  0.06987400  0.56038265    -0.42900
C261        C  0.02414962  0.26473018  0.94990101     0.00700
C262        C  0.48224621  0.23547241  0.92743489    -0.11200
C263        C  0.45065572  0.20420650  0.95807784     0.02900
C264        C  0.45912708  0.20289267  0.51346881     0.00600
C265        C  0.00841024  0.21887388  0.53092410    -0.11100
C266        C  0.03373689  0.25795286  0.50468894     0.02800
H267        H  0.47135016  0.23774655  0.88629509     0.15800
H268        H  0.02391190  0.20596698  0.56850688     0.15800
C269        C  0.06363779  0.29233643  0.53818071     0.37500
C270        C  0.41097120  0.17355101  0.93102397     0.37400
N271        N  0.08829520  0.31872507  0.56580384    -0.42900
N272        N  0.37835523  0.15012842  0.90974277    -0.42900
C273        C  0.45809424  0.02722437  0.77886142     0.00700
C274        C  0.00496661  0.00629100  0.79957504    -0.11200
C275        C  0.03409170  0.47058762  0.77130392     0.02900
C276        C  0.02172602  0.46168664  0.71729963     0.00600
C277        C  0.47162732  0.47750948  0.70058038    -0.11100
C278        C  0.44621886  0.51772943  0.72520677     0.02800
H279        H  0.01754983  0.01441925  0.83957786     0.15800
H280        H  0.45351302  0.46080524  0.66576473     0.15800
C281        C  0.40601073  0.04493073  0.69521160     0.37500
C282        C  0.06484855  0.43552958  0.80370498     0.37400
N283        N  0.37312240  0.06567263  0.67152390    -0.42900
N284        N  0.08806818  0.40765646  0.83130607    -0.42900
C285        C  0.25810855  0.28293683  0.75764135     0.00700
C286        C  0.20680788  0.27230654  0.77282754    -0.11200
C287        C  0.18207795  0.23047648  0.74939311     0.02900
C288        C  0.19525668  0.21632270  0.69677077     0.00600
C289        C  0.23974579  0.24157307  0.67462908    -0.11100
C290        C  0.26978501  0.27615364  0.70368616     0.02800
H291        H  0.19205926  0.28678472  0.81015874     0.15800
H292        H  0.25403863  0.23280914  0.63552929     0.15800
C293        C  0.31201951  0.30289776  0.67700053     0.37500
C294        C  0.15665769  0.19598971  0.78610672     0.37400
N295        N  0.34618760  0.32339142  0.65553864    -0.42900
N296        N  0.13702782  0.16762691  0.81553660    -0.42900
C297        C  0.29712120  0.80307616  0.29902857    -0.01600
C298        C  0.42074561  0.55747662  0.31446583    -0.01600
C299        C  0.05669924  0.80207548  0.41596314    -0.01600
C300        C  0.16516321  0.67402756  0.16477984    -0.01600
C301        C  0.31029309  0.91964108  0.05792764    -0.01600
C302        C  0.42388253  0.67215836  0.05182513    -0.01600
C303        C  0.17362405  0.54691430  0.42278636    -0.01600
C304        C  0.05321243  0.92637357  0.17962421    -0.01600
Zn305      Zn  0.50442189  0.55370436  0.46178887     1.49700
Zn306      Zn  0.05728171  0.94871462  0.50369095     1.49400
Zn307      Zn  0.45977910  0.00063906  0.06203794     1.49100
Zn308      Zn  0.44743148  0.94141313  0.44891793     1.49500
O309        O  0.49099478  0.98470678  0.49241512    -1.83300
O310        O  0.07936527  0.56557885  0.43401351    -0.73900
O311        O  0.06482307  0.92363712  0.08192527    -0.73700
O312        O  0.42643657  0.57545816  0.06860109    -0.73200
O313        O  0.11155632  0.99284685  0.46912974    -0.73900
O314        O  0.48235889  0.60825393  0.51222549    -0.73500
O315        O  0.51961595  0.98959535  0.11383926    -0.74100
O316        O  0.38644041  0.92203950  0.49936588    -0.73500
O317        O  0.06682249  0.88442755  0.46170094    -0.74200
O318        O  0.39759973  0.95397821  0.07942542    -0.73600
O319        O  0.48965446  0.87289406  0.42407414    -0.74100
O320        O  0.42318948  0.99039999  0.38453485    -0.74000
O321        O  0.45893339  0.56850547  0.40025131    -0.73800
C322        C  0.11785048  0.53478803  0.44205098     0.78000
C323        C  0.04488621  0.94684516  0.12161952     0.78500
C324        C  0.44489117  0.61507746  0.04485573     0.77500
C325        C  0.36932874  0.92941316  0.04623118     0.77800
C326        C  0.03699829  0.85723878  0.43283918     0.79000
C327        C  0.43133448  0.53884855  0.37138897     0.78000
Zn328      Zn  0.20601863  0.99801337  0.17197531     1.49700
Zn329      Zn  0.30743284  0.95792045  0.23286253     1.49400
Zn330      Zn  0.24903038  0.56086898  0.27142092     1.49100
Zn331      Zn  0.19447627  0.94269126  0.28237099     1.49500
O332        O  0.23842867  0.99019870  0.24082921    -1.83300
O333        O  0.24517075  0.94598164  0.12278280    -0.73900
O334        O  0.35802670  0.99615166  0.27976399    -0.73700
O335        O  0.21431251  0.61785310  0.22655121    -0.73200
O336        O  0.32660121  0.94445421  0.15300445    -0.73900
O337        O  0.18663739  0.57795676  0.15439923    -0.73500
O338        O  0.32673947  0.57599642  0.29392501    -0.74100
O339        O  0.16723782  0.98785796  0.34662732    -0.73500
O340        O  0.31274683  0.88828208  0.26470388    -0.74200
O341        O  0.21029233  0.56347262  0.33814730    -0.73600
O342        O  0.23959991  0.87905006  0.30997620    -0.74100
O343        O  0.13345314  0.91199322  0.23356079    -0.74000
O344        O  0.13525337  0.96970995  0.16929587    -0.73800
C345        C  0.29368232  0.93535084  0.11562715     0.78000
C346        C  0.36410242  0.54252954  0.29779188     0.78500
C347        C  0.18947637  0.61978295  0.18264677     0.77500
C348        C  0.18058577  0.53342266  0.36434315     0.77800
C349        C  0.28444308  0.86152211  0.29523897     0.79000
C350        C  0.11153231  0.93372413  0.19359593     0.78000
Zn351      Zn  0.30590045  0.76995350  0.47366225     1.49700
Zn352      Zn  0.20561696  0.71803811  0.41576608     1.49400
Zn353      Zn  0.25284594  0.66646525  0.01763533     1.49100
Zn354      Zn  0.19593930  0.78293955  0.02479358     1.49500
O355        O  0.23933405  0.73544721  0.48435062    -1.83300
O356        O  0.31343243  0.79126483  0.39473437    -0.73900
O357        O  0.17601902  0.64328507  0.41038453    -0.73700
O358        O  0.32922167  0.65202874  0.04276697    -0.73200
O359        O  0.25455529  0.73965073  0.35742318    -0.73900
O360        O  0.35918893  0.72548881  0.00853096    -0.73500
O361        O  0.22993636  0.60999492  0.46867144    -0.74100
O362        O  0.16692134  0.73472284  0.08836719    -0.73500
O363        O  0.13938350  0.75688579  0.40246992    -0.74200
O364        O  0.20791393  0.65757013  0.08141403    -0.73600
O365        O  0.13631090  0.80823363  0.47216398    -0.74100
O366        O  0.24151991  0.85012329  0.05130654    -0.74000
O367        O  0.31862694  0.83519338  0.01529704    -0.73800
C368        C  0.28802611  0.77671225  0.35376925     0.78000
C369        C  0.19349494  0.60361591  0.43469456     0.78500
C370        C  0.36718224  0.68296310  0.03395939     0.77500
C371        C  0.17691771  0.68785633  0.10611935     0.78200
C372        C  0.11539683  0.79103490  0.42937740     0.79000
C373        C  0.28947348  0.86404081  0.04326371     0.78000
Zn374      Zn  0.41612689  0.70179244  0.22587141     1.49700
Zn375      Zn  0.01268332  0.75581742  0.16679892     1.49400
Zn376      Zn  0.46884947  0.80719603  0.26935531     1.49100
Zn377      Zn  0.02878178  0.69353255  0.27607230     1.49500
O378        O  0.48270545  0.73892417  0.23604447    -1.83300
O379        O  0.40995454  0.67363987  0.14873884    -0.73900
O380        O  0.04129061  0.83176773  0.16017315    -0.73700
O381        O  0.39170576  0.81850231  0.28955391    -0.73200
O382        O  0.45452494  0.73894202  0.11415896    -0.73900
O383        O  0.35861109  0.74464541  0.25722347    -0.73500
O384        O  0.99855211  0.86513122  0.22719276    -0.74100
O385        O  0.05715671  0.74268654  0.33879390    -0.73500
O386        O  0.07959032  0.71481112  0.15144632    -0.74200
O387        O  0.01030116  0.81631326  0.33447538    -0.73600
O388        O  0.08701736  0.66434829  0.22189447    -0.74100
O389        O  0.48485108  0.62985072  0.30790957    -0.74000
O390        O  0.40740229  0.63936562  0.27006730    -0.73800
C391        C  0.42983872  0.69558325  0.10835681     0.78000
C392        C  0.03024916  0.87098804  0.18894282     0.78500
C393        C  0.35277276  0.78814639  0.28164578     0.77500
C394        C  0.04427647  0.78821951  0.35769765     0.77800
C395        C  0.10577549  0.68149028  0.17816314     0.79000
C396        C  0.43755472  0.61383431  0.30014515     0.78000
C397        C  0.28267380  0.95668027  0.01836223     0.00700
C398        C  0.25603390  0.00122002  0.03717153    -0.11200
C399        C  0.21250413  0.51860808  0.01087967     0.02900
C400        C  0.20991088  0.51145057  0.45551644     0.00600
C401        C  0.24555714  0.97661098  0.43219476    -0.11100
C402        C  0.27911047  0.94692096  0.46275061     0.02800
H403        H  0.26481288  0.51916425  0.07489184     0.15800
H404        H  0.24830382  0.97163940  0.38998781     0.15800
C405        C  0.31216234  0.91234065  0.43260572     0.37500
C406        C  0.17343907  0.54788837  0.04008491     0.37400
N407        N  0.34073469  0.88918440  0.40603199    -0.42900
N408        N  0.13932463  0.56987251  0.06038275    -0.42900
C409        C  0.02414910  0.76472973  0.44989925     0.00700
C410        C  0.48224609  0.73547149  0.42743294    -0.11200
C411        C  0.45065543  0.70420570  0.45807583     0.02900
C412        C  0.45912611  0.70289248  0.01346704     0.00600
C413        C  0.00840918  0.71887383  0.03092260    -0.11100
C414        C  0.03373639  0.75795234  0.00468727     0.02800
H415        H  0.47135026  0.73774530  0.38629309     0.15800
H416        H  0.02391059  0.70596702  0.06850554     0.15800
C417        C  0.06363819  0.79233527  0.03817895     0.37500
C418        C  0.41097119  0.67354994  0.43102185     0.37400
N419        N  0.08829588  0.81872347  0.06580229    -0.42900
N420        N  0.37835541  0.65012720  0.40974049    -0.42900
C421        C  0.45809420  0.52722510  0.27886088     0.00700
C422        C  0.00496730  0.50629336  0.29957442    -0.11200
C423        C  0.03409082  0.97058559  0.27130389     0.02900
C424        C  0.02172563  0.96168605  0.21729923     0.00600
C425        C  0.47162738  0.97751017  0.20057988    -0.11100
C426        C  0.44621921  0.01772987  0.22520700     0.02800
H427        H  0.01755079  0.51442279  0.33957691     0.15800
H428        H  0.45351286  0.96080676  0.16576394     0.15800
C429        C  0.40601056  0.54492975  0.19521073     0.37500
C430        C  0.06484802  0.93552716  0.30370419     0.37400
N431        N  0.37312258  0.56567113  0.17152209    -0.42900
N432        N  0.08806810  0.90765375  0.33130460    -0.42900
C433        C  0.25810695  0.78293648  0.25764064     0.00700
C434        C  0.20680641  0.77230578  0.27282703    -0.11200
C435        C  0.18207648  0.73047578  0.24939247     0.02900
C436        C  0.19525501  0.71632239  0.19676995     0.00600
C437        C  0.23974413  0.74157271  0.17462838    -0.11100
C438        C  0.26978338  0.77615315  0.20368545     0.02800
H439        H  0.19205780  0.78678380  0.31015833     0.15800
H440        H  0.25403707  0.73280874  0.13552862     0.15800
C441        C  0.31201812  0.80289674  0.17699980     0.37500
C442        C  0.15665612  0.69598889  0.28610591     0.37400
N443        N  0.34618646  0.82338990  0.15553784    -0.42900
N444        N  0.13702610  0.66762600  0.31553566    -0.42900
C445        C  0.29712126  0.80307620  0.79902855    -0.01600
C446        C  0.42074559  0.55747662  0.81446581    -0.01600
C447        C  0.05669920  0.80207549  0.91596321    -0.01600
C448        C  0.16516322  0.67402748  0.66477990    -0.01600
C449        C  0.31029312  0.91964106  0.55792763    -0.01600
C450        C  0.42388258  0.67215845  0.55182506    -0.01600
C451        C  0.17362395  0.54691442  0.92278632    -0.01600
C452        C  0.05321243  0.92637363  0.67962424    -0.01600
Zn453      Zn  0.50442183  0.55370430  0.96178904     1.49700
Zn454      Zn  0.05728172  0.94871472  0.00369082     1.49400
Zn455      Zn  0.45977902  0.00063917  0.56203810     1.49100
Zn456      Zn  0.44743141  0.94141325  0.94891788     1.49500
O457        O  0.49099482  0.98470692  0.99241494    -1.83300
O458        O  0.07936516  0.56557897  0.93401357    -0.73900
O459        O  0.06482327  0.92363729  0.58192535    -0.73700
O460        O  0.42643651  0.57545834  0.56860108    -0.73200
O461        O  0.11155652  0.99284664  0.96912969    -0.73900
O462        O  0.48235892  0.60825392  0.01222559    -0.73500
O463        O  0.51961601  0.98959545  0.61383928    -0.74100
O464        O  0.38644037  0.92203950  0.99936587    -0.73500
O465        O  0.06682243  0.88442767  0.96170087    -0.74200
O466        O  0.39759971  0.95397816  0.57942549    -0.73600
O467        O  0.48965445  0.87289408  0.92407419    -0.74100
O468        O  0.42318932  0.99040010  0.88453489    -0.74000
O469        O  0.45893331  0.56850532  0.90025137    -0.73800
C470        C  0.11785039  0.53478815  0.94205094     0.78000
C471        C  0.04488624  0.94684526  0.62161955     0.78500
C472        C  0.44489117  0.61507755  0.54485567     0.77500
C473        C  0.36932876  0.92941313  0.54623120     0.77800
C474        C  0.03699819  0.85723882  0.93283922     0.79000
C475        C  0.43133441  0.53884846  0.87138894     0.78000
Zn476      Zn  0.20601860  0.99801348  0.67197529     1.49700
Zn477      Zn  0.30743276  0.95792048  0.73286253     1.49400
Zn478      Zn  0.24903051  0.56086902  0.77142088     1.49100
Zn479      Zn  0.19447636  0.94269118  0.78237116     1.49500
O480        O  0.23842859  0.99019874  0.74082928    -1.83300
O481        O  0.24517076  0.94598152  0.62278288    -0.73900
O482        O  0.35802663  0.99615178  0.77976389    -0.73700
O483        O  0.21431265  0.61785310  0.72655123    -0.73200
O484        O  0.32660122  0.94445435  0.65300443    -0.73900
O485        O  0.18663763  0.57795670  0.65439924    -0.73500
O486        O  0.32673946  0.57599656  0.79392501    -0.74100
O487        O  0.16723783  0.98785785  0.84662745    -0.73500
O488        O  0.31274689  0.88828218  0.76470401    -0.74200
O489        O  0.21029229  0.56347254  0.83814722    -0.73600
O490        O  0.23959992  0.87904999  0.80997625    -0.74100
O491        O  0.13345312  0.91199321  0.73356091    -0.74000
O492        O  0.13525347  0.96970978  0.66929584    -0.73800
C493        C  0.29368234  0.93535082  0.61562716     0.78000
C494        C  0.36410239  0.54252964  0.79779183     0.78500
C495        C  0.18947652  0.61978290  0.68264681     0.77500
C496        C  0.18058568  0.53342266  0.86434310     0.77800
C497        C  0.28444312  0.86152214  0.79523901     0.79000
C498        C  0.11153234  0.93372406  0.69359598     0.78000
Zn499      Zn  0.30590063  0.76995340  0.97366221     1.49700
Zn500      Zn  0.20561691  0.71803829  0.91576603     1.49400
Zn501      Zn  0.25284595  0.66646532  0.51763551     1.49100
Zn502      Zn  0.19593921  0.78293950  0.52479360     1.49500
O503        O  0.23933411  0.73544720  0.98435055    -1.83300
O504        O  0.31343274  0.79126478  0.89473430    -0.73900
O505        O  0.17601885  0.64328529  0.91038463    -0.73700
O506        O  0.32922176  0.65202880  0.54276687    -0.73200
O507        O  0.25455536  0.73965087  0.85742318    -0.73900
O508        O  0.35918890  0.72548895  0.50853095    -0.73500
O509        O  0.22993634  0.60999499  0.96867131    -0.74100
O510        O  0.16692126  0.73472269  0.58836724    -0.73500
O511        O  0.13938339  0.75688574  0.90246993    -0.74200
O512        O  0.20791408  0.65757010  0.58141425    -0.73600
O513        O  0.13631096  0.80823358  0.97216401    -0.74100
O514        O  0.24151996  0.85012321  0.55130652    -0.74000
O515        O  0.31862699  0.83519340  0.51529696    -0.73800
C516        C  0.28802627  0.77671231  0.85376922     0.78000
C517        C  0.19349483  0.60361606  0.93469451     0.78500
C518        C  0.36718228  0.68296321  0.53395932     0.77500
C519        C  0.17691774  0.68785623  0.60611947     0.78200
C520        C  0.11539679  0.79103485  0.92937745     0.79000
C521        C  0.28947353  0.86404079  0.54326365     0.78000
Zn522      Zn  0.41612685  0.70179255  0.72587133     1.49700
Zn523      Zn  0.01268323  0.75581740  0.66679901     1.49400
Zn524      Zn  0.46884943  0.80719601  0.76935534     1.49100
Zn525      Zn  0.02878168  0.69353250  0.77607228     1.49500
O526        O  0.48270542  0.73892416  0.73604453    -1.83300
O527        O  0.40995451  0.67363989  0.64873874    -0.73900
O528        O  0.04129052  0.83176778  0.66017309    -0.73700
O529        O  0.39170578  0.81850229  0.78955415    -0.73200
O530        O  0.45452485  0.73894209  0.61415896    -0.73900
O531        O  0.35861110  0.74464553  0.75722333    -0.73500
O532        O  0.99855201  0.86513126  0.72719271    -0.74100
O533        O  0.05715656  0.74268651  0.83879395    -0.73500
O534        O  0.07959023  0.71481098  0.65144630    -0.74200
O535        O  0.01030115  0.81631331  0.83447541    -0.73600
O536        O  0.08701726  0.66434813  0.72189443    -0.74100
O537        O  0.48485115  0.62985069  0.80790966    -0.74000
O538        O  0.40740245  0.63936568  0.77006727    -0.73800
C539        C  0.42983869  0.69558331  0.60835675     0.78000
C540        C  0.03024906  0.87098810  0.68894277     0.78500
C541        C  0.35277278  0.78814645  0.78164578     0.77500
C542        C  0.04427641  0.78821952  0.85769770     0.77800
C543        C  0.10577543  0.68149013  0.67816311     0.79000
C544        C  0.43755479  0.61383432  0.80014517     0.78000
C545        C  0.28267386  0.95668031  0.51836226     0.00700
C546        C  0.25603383  0.00121996  0.53717157    -0.11200
C547        C  0.21250415  0.51860790  0.51087966     0.02900
C548        C  0.20991081  0.51145070  0.95551646     0.00600
C549        C  0.24555709  0.97661087  0.93219476    -0.11100
C550        C  0.27911038  0.94692086  0.96275061     0.02800
H551        H  0.26481299  0.51916416  0.57489177     0.15800
H552        H  0.24830373  0.97163924  0.88998783     0.15800
C553        C  0.31216230  0.91234063  0.93260569     0.37500
C554        C  0.17343904  0.54788820  0.54008490     0.37400
N555        N  0.34073458  0.88918436  0.90603193    -0.42900
N556        N  0.13932458  0.56987236  0.56038268    -0.42900
C557        C  0.02414908  0.76472975  0.94989930     0.00700
C558        C  0.48224607  0.73547150  0.92743299    -0.11200
C559        C  0.45065532  0.70420578  0.95807585     0.02900
C560        C  0.45912621  0.70289248  0.51346701     0.00600
C561        C  0.00840916  0.71887380  0.53092257    -0.11100
C562        C  0.03373637  0.75795231  0.50468723     0.02800
H563        H  0.47135035  0.73774523  0.88629307     0.15800
H564        H  0.02391049  0.70596699  0.56850557     0.15800
C565        C  0.06363820  0.79233517  0.53817892     0.37500
C566        C  0.41097121  0.67354992  0.93102183     0.37400
N567        N  0.08829602  0.81872329  0.56580220    -0.42900
N568        N  0.37835557  0.65012700  0.90974038    -0.42900
C569        C  0.45809415  0.52722506  0.77886082     0.00700
C570        C  0.00496737  0.50629334  0.79957433    -0.11200
C571        C  0.03409087  0.97058567  0.77130399     0.02900
C572        C  0.02172568  0.96168615  0.71729929     0.00600
C573        C  0.47162743  0.97751028  0.70057991    -0.11100
C574        C  0.44621920  0.01772992  0.72520708     0.02800
H575        H  0.01755087  0.51442275  0.83957678     0.15800
H576        H  0.45351296  0.96080694  0.66576392     0.15800
C577        C  0.40601048  0.54492976  0.69521064     0.37500
C578        C  0.06484810  0.93552722  0.80370424     0.37400
N579        N  0.37312252  0.56567127  0.67152208    -0.42900
N580        N  0.08806828  0.90765369  0.83130447    -0.42900
C581        C  0.25810696  0.78293648  0.75764063     0.00700
C582        C  0.20680640  0.77230577  0.77282703    -0.11200
C583        C  0.18207644  0.73047578  0.74939245     0.02900
C584        C  0.19525496  0.71632242  0.69676992     0.00600
C585        C  0.23974405  0.74157283  0.67462833    -0.11100
C586        C  0.26978333  0.77615325  0.70368541     0.02800
H587        H  0.19205776  0.78678376  0.81015834     0.15800
H588        H  0.25403699  0.73280888  0.63552853     0.15800
C589        C  0.31201817  0.80289675  0.67699980     0.37500
C590        C  0.15665606  0.69598883  0.78610585     0.37400
N591        N  0.34618661  0.82338971  0.65553783    -0.42900
N592        N  0.13702603  0.66762590  0.81553554    -0.42900
C593        C  0.79712264  0.30307648  0.29902948    -0.01600
C594        C  0.92074592  0.05747627  0.31446626    -0.01600
C595        C  0.55670021  0.30207532  0.41596470    -0.01600
C596        C  0.66516470  0.17402776  0.16478087    -0.01600
C597        C  0.81029354  0.41964129  0.05792750    -0.01600
C598        C  0.92388365  0.17215855  0.05182714    -0.01600
C599        C  0.67362359  0.04691403  0.42278650    -0.01600
C600        C  0.55321290  0.42637424  0.17962490    -0.01600
Zn601      Zn  0.00442137  0.05370426  0.46178960     1.49700
Zn602      Zn  0.55728265  0.44871515  0.50369105     1.49400
Zn603      Zn  0.95977927  0.50063917  0.06203760     1.49100
Zn604      Zn  0.94743214  0.44141328  0.44891766     1.49500
O605        O  0.99099545  0.48470696  0.49241469    -1.83300
O606        O  0.57936477  0.06557857  0.43401397    -0.73900
O607        O  0.56482445  0.42363852  0.08192588    -0.73700
O608        O  0.92643721  0.07545826  0.06860263    -0.73200
O609        O  0.61155695  0.49284717  0.46912944    -0.73900
O610        O  0.98235917  0.10825391  0.51222659    -0.73500
O611        O  0.01961558  0.48959565  0.11383974    -0.74100
O612        O  0.88644088  0.42203973  0.49936565    -0.73500
O613        O  0.56682386  0.38442773  0.46170173    -0.74200
O614        O  0.89760018  0.45397816  0.07942536    -0.73600
O615        O  0.98965583  0.37289422  0.42407486    -0.74100
O616        O  0.92318966  0.49040003  0.38453437    -0.74000
O617        O  0.95893288  0.06850551  0.40025205    -0.73800
C618        C  0.61784999  0.03478774  0.44205131     0.78000
C619        C  0.54488671  0.44684595  0.12162006     0.78500
C620        C  0.94489193  0.11507756  0.04485735     0.77500
C621        C  0.86932919  0.42941326  0.04623104     0.77800
C622        C  0.53699953  0.35723886  0.43284019     0.79000
C623        C  0.93133440  0.03884842  0.37138945     0.78000
Zn624      Zn  0.70601892  0.49801345  0.17197532     1.49700
Zn625      Zn  0.80743278  0.45792038  0.23286252     1.49400
Zn626      Zn  0.74903083  0.06086865  0.27142131     1.49100
Zn627      Zn  0.69447692  0.44269114  0.28237169     1.49500
O628        O  0.73842866  0.49019872  0.24082939    -1.83300
O629        O  0.74517105  0.44598179  0.12278263    -0.73900
O630        O  0.85802640  0.49615190  0.27976360    -0.73700
O631        O  0.71431321  0.11785290  0.22655213    -0.73200
O632        O  0.82660140  0.44445433  0.15300442    -0.73900
O633        O  0.68663814  0.07795700  0.15439978    -0.73500
O634        O  0.82673987  0.07599634  0.29392517    -0.74100
O635        O  0.66723886  0.48785799  0.34662769    -0.73500
O636        O  0.81274754  0.38828224  0.26470419    -0.74200
O637        O  0.71029262  0.06347197  0.33814767    -0.73600
O638        O  0.73960113  0.37905027  0.30997731    -0.74100
O639        O  0.63345320  0.41199361  0.23356193    -0.74000
O640        O  0.63525404  0.46970981  0.16929642    -0.73800
C641        C  0.79368263  0.43535104  0.11562701     0.78000
C642        C  0.86410267  0.04252936  0.29779224     0.78500
C643        C  0.68947735  0.11978302  0.18264760     0.77500
C644        C  0.68058539  0.03342238  0.36434319     0.77800
C645        C  0.78444427  0.36152240  0.29523984     0.79000
C646        C  0.61153267  0.43372448  0.19359684     0.78000
Zn647      Zn  0.80590180  0.26995320  0.47366339     1.49700
Zn648      Zn  0.70561796  0.21803822  0.41576679     1.49400
Zn649      Zn  0.75284708  0.16646457  0.01763576     1.49100
Zn650      Zn  0.69594068  0.28293879  0.02479477     1.49500
O651        O  0.73933532  0.23544673  0.48435139    -1.83300
O652        O  0.81343439  0.29126407  0.39473521    -0.73900
O653        O  0.67601896  0.14328519  0.41038526    -0.73700
O654        O  0.82922306  0.15202791  0.04276727    -0.73200
O655        O  0.75455621  0.23965117  0.35742392    -0.73900
O656        O  0.85918978  0.22548950  0.00853406    -0.73500
O657        O  0.72993701  0.10999426  0.46867104    -0.74100
O658        O  0.66692281  0.23472269  0.08836828    -0.73500
O659        O  0.63938497  0.25688669  0.40247036    -0.74200
O660        O  0.70791538  0.15756999  0.08141504    -0.73600
O661        O  0.63631143  0.30823191  0.47216627    -0.74100
O662        O  0.74152081  0.35012299  0.05130723    -0.74000
O663        O  0.81862759  0.33519367  0.01529704    -0.73800
C664        C  0.78802754  0.27671224  0.35377008     0.78000
C665        C  0.69349495  0.10361567  0.43469472     0.78500
C666        C  0.86718326  0.18296333  0.03396164     0.77500
C667        C  0.67691921  0.18785625  0.10612042     0.78200
C668        C  0.61539775  0.29103449  0.42937902     0.79000
C669        C  0.78947414  0.36404094  0.04326381     0.78000
Zn670      Zn  0.91612842  0.20179293  0.22587301     1.49700
Zn671      Zn  0.51268504  0.25581795  0.16680076     1.49400
Zn672      Zn  0.96885093  0.30719651  0.26935686     1.49100
Zn673      Zn  0.52878288  0.19353211  0.27607354     1.49500
O674        O  0.98270700  0.23892453  0.23604616    -1.83300
O675        O  0.90995628  0.17364007  0.14874081    -0.73900
O676        O  0.54129194  0.33176825  0.16017478    -0.73700
O677        O  0.89170726  0.31850267  0.28955580    -0.73200
O678        O  0.95452671  0.23894213  0.11416082    -0.73900
O679        O  0.85861269  0.24464625  0.25722411    -0.73500
O680        O  0.49855277  0.36513192  0.22719383    -0.74100
O681        O  0.55715709  0.24268575  0.33879587    -0.73500
O682        O  0.57959208  0.21481195  0.15144792    -0.74200
O683        O  0.51030299  0.31631348  0.33447659    -0.73600
O684        O  0.58701881  0.16434838  0.22189554    -0.74100
O685        O  0.98485209  0.12984981  0.30790984    -0.74000
O686        O  0.90740285  0.13936615  0.27006897    -0.73800
C687        C  0.92984032  0.19558343  0.10835875     0.78000
C688        C  0.53024985  0.37098872  0.18894388     0.78500
C689        C  0.85277426  0.28814698  0.28164681     0.77500
C690        C  0.54427750  0.28821910  0.35769928     0.77800
C691        C  0.60577706  0.18149070  0.17816436     0.79000
C692        C  0.93755545  0.11383399  0.30014587     0.78000
C693        C  0.78267425  0.45668048  0.01836207     0.00700
C694        C  0.75603434  0.50122020  0.03717138    -0.11200
C695        C  0.71250363  0.01860782  0.01087988     0.02900
C696        C  0.70991024  0.01145016  0.45551667     0.00600
C697        C  0.74555819  0.47661179  0.43219443    -0.11100
C698        C  0.77911096  0.44692120  0.46275036     0.02800
H699        H  0.76481250  0.01916407  0.07489193     0.15800
H700        H  0.74830544  0.47164078  0.38998744     0.15800
C701        C  0.81216260  0.41234068  0.43260554     0.37500
C702        C  0.67343896  0.04788896  0.04008497     0.37400
N703        N  0.84073476  0.38918414  0.40603184    -0.42900
N704        N  0.63932507  0.06987406  0.06038266    -0.42900
C705        C  0.52414961  0.26473018  0.44990099     0.00700
C706        C  0.98224633  0.23547239  0.42743483    -0.11200
C707        C  0.95065573  0.20420659  0.45807774     0.02900
C708        C  0.95912709  0.20289264  0.01346890     0.00600
C709        C  0.50841025  0.21887388  0.03092414    -0.11100
C710        C  0.53373693  0.25795278  0.00468891     0.02800
H711        H  0.97135029  0.23774656  0.38629502     0.15800
H712        H  0.52391190  0.20596701  0.06850695     0.15800
C713        C  0.56363781  0.29233635  0.03818064     0.37500
C714        C  0.91097122  0.17355118  0.43102385     0.37400
N715        N  0.58829505  0.31872510  0.06580380    -0.42900
N716        N  0.87835524  0.15012849  0.40974271    -0.42900
C717        C  0.95809427  0.02722436  0.27886127     0.00700
C718        C  0.50496664  0.00629098  0.29957494    -0.11200
C719        C  0.53409167  0.47058763  0.27130402     0.02900
C720        C  0.52172600  0.46168670  0.21729969     0.00600
C721        C  0.97162739  0.47750953  0.20058045    -0.11100
C722        C  0.94621889  0.51772942  0.22520688     0.02800
H723        H  0.51754984  0.01441921  0.33957772     0.15800
H724        H  0.95351313  0.46080534  0.16576479     0.15800
C725        C  0.90601071  0.04493072  0.19521147     0.37500
C726        C  0.56484860  0.43552964  0.30370508     0.37400
N727        N  0.87312233  0.06567240  0.17152369    -0.42900
N728        N  0.58806827  0.40765642  0.33130603    -0.42900
C729        C  0.75810855  0.28293681  0.25764136     0.00700
C730        C  0.70680790  0.27230649  0.27282752    -0.11200
C731        C  0.68207806  0.23047638  0.24939313     0.02900
C732        C  0.69525678  0.21632258  0.19677078     0.00600
C733        C  0.73974574  0.24157312  0.17462905    -0.11100
C734        C  0.76978493  0.27615366  0.20368615     0.02800
H735        H  0.69205920  0.28678468  0.31015870     0.15800
H736        H  0.75403854  0.23280931  0.13552916     0.15800
C737        C  0.81201939  0.30289769  0.17700056     0.37500
C738        C  0.65665759  0.19598977  0.28610669     0.37400
N739        N  0.84618751  0.32339123  0.15553865    -0.42900
N740        N  0.63702754  0.16762698  0.31553647    -0.42900
C741        C  0.79712267  0.30307645  0.79902947    -0.01600
C742        C  0.92074589  0.05747635  0.81446637    -0.01600
C743        C  0.55670017  0.30207536  0.91596473    -0.01600
C744        C  0.66516468  0.17402785  0.66478085    -0.01600
C745        C  0.81029356  0.41964124  0.55792746    -0.01600
C746        C  0.92388365  0.17215858  0.55182706    -0.01600
C747        C  0.67362358  0.04691399  0.92278656    -0.01600
C748        C  0.55321295  0.42637413  0.67962488    -0.01600
Zn749      Zn  0.00442157  0.05370438  0.96178960     1.49700
Zn750      Zn  0.55728274  0.44871524  0.00369114     1.49400
Zn751      Zn  0.95977925  0.50063936  0.56203748     1.49100
Zn752      Zn  0.94743209  0.44141317  0.94891763     1.49500
O753        O  0.99099540  0.48470681  0.99241482    -1.83300
O754        O  0.57936484  0.06557850  0.93401416    -0.73900
O755        O  0.56482433  0.42363837  0.58192582    -0.73700
O756        O  0.92643717  0.07545839  0.56860261    -0.73200
O757        O  0.61155691  0.49284729  0.96912933    -0.73900
O758        O  0.98235919  0.10825391  0.01222666    -0.73500
O759        O  0.01961550  0.48959554  0.61383972    -0.74100
O760        O  0.88644086  0.42203965  0.99936570    -0.73500
O761        O  0.56682370  0.38442777  0.96170185    -0.74200
O762        O  0.89760021  0.45397826  0.57942528    -0.73600
O763        O  0.98965581  0.37289421  0.92407481    -0.74100
O764        O  0.92318966  0.49039994  0.88453427    -0.74000
O765        O  0.95893313  0.06850554  0.90025200    -0.73800
C766        C  0.61785004  0.03478763  0.94205137     0.78000
C767        C  0.54488667  0.44684583  0.62162002     0.78500
C768        C  0.94489191  0.11507762  0.54485728     0.77500
C769        C  0.86932921  0.42941333  0.54623100     0.77800
C770        C  0.53699945  0.35723889  0.93284021     0.79000
C771        C  0.93133440  0.03884854  0.87138953     0.78000
Zn772      Zn  0.70601893  0.49801333  0.67197528     1.49700
Zn773      Zn  0.80743302  0.45792033  0.73286246     1.49400
Zn774      Zn  0.74903079  0.06086864  0.77142134     1.49100
Zn775      Zn  0.69447711  0.44269122  0.78237163     1.49500
O776        O  0.73842891  0.49019875  0.74082929    -1.83300
O777        O  0.74517108  0.44598168  0.62278260    -0.73900
O778        O  0.85802657  0.49615198  0.77976350    -0.73700
O779        O  0.71431336  0.11785300  0.72655202    -0.73200
O780        O  0.82660147  0.44445420  0.65300433    -0.73900
O781        O  0.68663805  0.07795710  0.65439979    -0.73500
O782        O  0.82673974  0.07599632  0.79392550    -0.74100
O783        O  0.66723880  0.48785795  0.84662768    -0.73500
O784        O  0.81274776  0.38828222  0.76470428    -0.74200
O785        O  0.71029249  0.06347187  0.83814769    -0.73600
O786        O  0.73960122  0.37905027  0.80997718    -0.74100
O787        O  0.63345338  0.41199354  0.73356191    -0.74000
O788        O  0.63525411  0.46970965  0.66929635    -0.73800
C789        C  0.79368266  0.43535094  0.61562696     0.78000
C790        C  0.86410263  0.04252940  0.79779236     0.78500
C791        C  0.68947737  0.11978314  0.68264757     0.77500
C792        C  0.68058530  0.03342230  0.86434326     0.77800
C793        C  0.78444439  0.36152238  0.79523983     0.79000
C794        C  0.61153278  0.43372434  0.69359680     0.78000
Zn795      Zn  0.80590180  0.26995321  0.97366335     1.49700
Zn796      Zn  0.70561788  0.21803817  0.91576675     1.49400
Zn797      Zn  0.75284697  0.16646447  0.51763570     1.49100
Zn798      Zn  0.69594060  0.28293889  0.52479473     1.49500
O799        O  0.73933539  0.23544675  0.98435131    -1.83300
O800        O  0.81343442  0.29126407  0.89473519    -0.73900
O801        O  0.67601889  0.14328510  0.91038528    -0.73700
O802        O  0.82922299  0.15202801  0.54276728    -0.73200
O803        O  0.75455622  0.23965115  0.85742392    -0.73900
O804        O  0.85918985  0.22548951  0.50853394    -0.73500
O805        O  0.72993680  0.10999435  0.96867128    -0.74100
O806        O  0.66692278  0.23472275  0.58836826    -0.73500
O807        O  0.63938495  0.25688685  0.90247030    -0.74200
O808        O  0.70791520  0.15756995  0.58141499    -0.73600
O809        O  0.63631143  0.30823186  0.97216636    -0.74100
O810        O  0.74152082  0.35012301  0.55130717    -0.74000
O811        O  0.81862761  0.33519365  0.51529701    -0.73800
C812        C  0.78802756  0.27671223  0.85377008     0.78000
C813        C  0.69349486  0.10361564  0.93469483     0.78500
C814        C  0.86718326  0.18296335  0.53396155     0.77500
C815        C  0.67691914  0.18785630  0.60612040     0.78200
C816        C  0.61539773  0.29103458  0.92937904     0.79000
C817        C  0.78947416  0.36404091  0.54326379     0.78000
Zn818      Zn  0.91612838  0.20179285  0.72587299     1.49700
Zn819      Zn  0.51268497  0.25581783  0.66680070     1.49400
Zn820      Zn  0.96885086  0.30719638  0.76935679     1.49100
Zn821      Zn  0.52878292  0.19353220  0.77607349     1.49500
O822        O  0.98270704  0.23892443  0.73604609    -1.83300
O823        O  0.90995616  0.17364011  0.64874073    -0.73900
O824        O  0.54129193  0.33176810  0.66017482    -0.73700
O825        O  0.89170726  0.31850252  0.78955579    -0.73200
O826        O  0.95452672  0.23894211  0.61416075    -0.73900
O827        O  0.85861264  0.24464611  0.75722415    -0.73500
O828        O  0.49855287  0.36513185  0.72719392    -0.74100
O829        O  0.55715722  0.24268575  0.83879586    -0.73500
O830        O  0.57959199  0.21481185  0.65144787    -0.74200
O831        O  0.51030294  0.31631331  0.83447658    -0.73600
O832        O  0.58701886  0.16434841  0.72189558    -0.74100
O833        O  0.98485214  0.12984989  0.80790982    -0.74000
O834        O  0.90740282  0.13936612  0.77006899    -0.73800
C835        C  0.92984029  0.19558343  0.60835868     0.78000
C836        C  0.53024991  0.37098860  0.68894394     0.78500
C837        C  0.85277424  0.28814685  0.78164684     0.77500
C838        C  0.54427751  0.28821905  0.85769929     0.77800
C839        C  0.60577703  0.18149069  0.67816435     0.79000
C840        C  0.93755547  0.11383404  0.80014592     0.78000
C841        C  0.78267418  0.45668036  0.51836205     0.00700
C842        C  0.75603428  0.50122007  0.53717136    -0.11200
C843        C  0.71250368  0.01860778  0.51087987     0.02900
C844        C  0.70991023  0.01145018  0.95551670     0.00600
C845        C  0.74555810  0.47661178  0.93219448    -0.11100
C846        C  0.77911102  0.44692130  0.96275038     0.02800
H847        H  0.76481247  0.01916405  0.57489203     0.15800
H848        H  0.74830517  0.47164059  0.88998753     0.15800
C849        C  0.81216267  0.41234076  0.93260553     0.37500
C850        C  0.67343908  0.04788890  0.54008494     0.37400
N851        N  0.84073491  0.38918433  0.90603181    -0.42900
N852        N  0.63932523  0.06987400  0.56038266    -0.42900
C853        C  0.52414957  0.26473020  0.94990100     0.00700
C854        C  0.98224626  0.23547236  0.92743490    -0.11200
C855        C  0.95065569  0.20420652  0.95807783     0.02900
C856        C  0.95912710  0.20289267  0.51346881     0.00600
C857        C  0.50841020  0.21887389  0.53092409    -0.11100
C858        C  0.53373680  0.25795291  0.50468896     0.02800
H859        H  0.97135020  0.23774653  0.88629510     0.15800
H860        H  0.52391185  0.20596696  0.56850687     0.15800
C861        C  0.56363778  0.29233643  0.53818070     0.37500
C862        C  0.91097115  0.17355106  0.93102397     0.37400
N863        N  0.58829527  0.31872503  0.56580381    -0.42900
N864        N  0.87835520  0.15012841  0.90974275    -0.42900
C865        C  0.95809420  0.02722432  0.77886143     0.00700
C866        C  0.50496665  0.00629103  0.79957503    -0.11200
C867        C  0.53409167  0.47058762  0.77130393     0.02900
C868        C  0.52172601  0.46168666  0.71729963     0.00600
C869        C  0.97162734  0.47750948  0.70058040    -0.11100
C870        C  0.94621892  0.51772945  0.72520679     0.02800
H871        H  0.51754986  0.01441923  0.83957787     0.15800
H872        H  0.95351300  0.46080525  0.66576477     0.15800
C873        C  0.90601071  0.04493071  0.69521159     0.37500
C874        C  0.56484858  0.43552962  0.80370498     0.37400
N875        N  0.87312244  0.06567267  0.67152386    -0.42900
N876        N  0.58806823  0.40765649  0.83130605    -0.42900
C877        C  0.75810860  0.28293683  0.75764134     0.00700
C878        C  0.70680794  0.27230654  0.77282752    -0.11200
C879        C  0.68207802  0.23047647  0.74939311     0.02900
C880        C  0.69525673  0.21632270  0.69677077     0.00600
C881        C  0.73974584  0.24157306  0.67462907    -0.11100
C882        C  0.76978507  0.27615363  0.70368614     0.02800
H883        H  0.69205931  0.28678473  0.81015872     0.15800
H884        H  0.75403866  0.23280914  0.63552926     0.15800
C885        C  0.81201957  0.30289776  0.67700053     0.37500
C886        C  0.65665776  0.19598971  0.78610672     0.37400
N887        N  0.84618767  0.32339142  0.65553864    -0.42900
N888        N  0.63702789  0.16762691  0.81553660    -0.42900
C889        C  0.79712122  0.80307615  0.29902856    -0.01600
C890        C  0.92074553  0.55747661  0.31446584    -0.01600
C891        C  0.55669920  0.80207548  0.41596315    -0.01600
C892        C  0.66516320  0.67402754  0.16477984    -0.01600
C893        C  0.81029314  0.91964109  0.05792764    -0.01600
C894        C  0.92388254  0.67215838  0.05182513    -0.01600
C895        C  0.67362406  0.54691431  0.42278635    -0.01600
C896        C  0.55321238  0.92637358  0.17962420    -0.01600
Zn897      Zn  0.00442185  0.55370437  0.46178886     1.49700
Zn898      Zn  0.55728174  0.94871463  0.50369095     1.49400
Zn899      Zn  0.95977918  0.00063907  0.06203796     1.49100
Zn900      Zn  0.94743155  0.94141312  0.44891793     1.49500
O901        O  0.99099479  0.98470679  0.49241512    -1.83300
O902        O  0.57936531  0.56557884  0.43401351    -0.73900
O903        O  0.56482313  0.92363719  0.08192528    -0.73700
O904        O  0.92643661  0.57545817  0.06860110    -0.73200
O905        O  0.61155638  0.99284684  0.46912974    -0.73900
O906        O  0.98235887  0.60825395  0.51222549    -0.73500
O907        O  0.01961611  0.98959542  0.11383928    -0.74100
O908        O  0.88644045  0.92203950  0.49936588    -0.73500
O909        O  0.56682243  0.88442755  0.46170092    -0.74200
O910        O  0.89759980  0.95397820  0.07942543    -0.73600
O911        O  0.98965455  0.87289406  0.42407412    -0.74100
O912        O  0.92318956  0.99039994  0.38453481    -0.74000
O913        O  0.95893334  0.56850547  0.40025129    -0.73800
C914        C  0.61785052  0.53478801  0.44205097     0.78000
C915        C  0.54488616  0.94684517  0.12161951     0.78500
C916        C  0.94489119  0.61507747  0.04485573     0.77500
C917        C  0.86932880  0.92941317  0.04623118     0.77800
C918        C  0.53699821  0.85723878  0.43283919     0.79000
C919        C  0.93133441  0.53884854  0.37138897     0.78000
Zn920      Zn  0.70601848  0.99801336  0.17197530     1.49700
Zn921      Zn  0.80743281  0.95792045  0.23286253     1.49400
Zn922      Zn  0.74903038  0.56086897  0.27142091     1.49100
Zn923      Zn  0.69447626  0.94269124  0.28237099     1.49500
O924        O  0.73842856  0.99019870  0.24082918    -1.83300
O925        O  0.74517079  0.94598165  0.12278283    -0.73900
O926        O  0.85802664  0.99615166  0.27976400    -0.73700
O927        O  0.71431256  0.61785311  0.22655121    -0.73200
O928        O  0.82660127  0.94445422  0.15300446    -0.73900
O929        O  0.68663745  0.57795676  0.15439923    -0.73500
O930        O  0.82673936  0.57599645  0.29392502    -0.74100
O931        O  0.66723789  0.98785796  0.34662733    -0.73500
O932        O  0.81274688  0.88828207  0.26470388    -0.74200
O933        O  0.71029238  0.56347263  0.33814731    -0.73600
O934        O  0.73959995  0.87905007  0.30997619    -0.74100
O935        O  0.63345306  0.91199323  0.23356082    -0.74000
O936        O  0.63525331  0.96970990  0.16929585    -0.73800
C937        C  0.79368237  0.93535085  0.11562716     0.78000
C938        C  0.86410230  0.54252956  0.29779188     0.78500
C939        C  0.68947642  0.61978295  0.18264677     0.77500
C940        C  0.68058581  0.53342268  0.36434315     0.77800
C941        C  0.78444312  0.86152211  0.29523897     0.79000
C942        C  0.61153225  0.93372410  0.19359592     0.78000
Zn943      Zn  0.80590051  0.76995350  0.47366225     1.49700
Zn944      Zn  0.70561693  0.71803810  0.41576608     1.49400
Zn945      Zn  0.75284597  0.66646525  0.01763533     1.49100
Zn946      Zn  0.69593929  0.78293955  0.02479359     1.49500
O947        O  0.73933411  0.73544721  0.48435062    -1.83300
O948        O  0.81343248  0.79126483  0.39473436    -0.73900
O949        O  0.67601882  0.64328508  0.41038461    -0.73700
O950        O  0.82922166  0.65202875  0.04276697    -0.73200
O951        O  0.75455532  0.73965072  0.35742318    -0.73900
O952        O  0.85918887  0.72548882  0.00853092    -0.73500
O953        O  0.72993634  0.60999496  0.46867136    -0.74100
O954        O  0.66692120  0.73472280  0.08836717    -0.73500
O955        O  0.63938341  0.75688575  0.40246994    -0.74200
O956        O  0.70791399  0.65757020  0.08141406    -0.73600
O957        O  0.63631089  0.80823365  0.47216396    -0.74100
O958        O  0.74151997  0.85012329  0.05130655    -0.74000
O959        O  0.81862697  0.83519337  0.01529704    -0.73800
C960        C  0.78802614  0.77671225  0.35376924     0.78000
C961        C  0.69349485  0.60361593  0.43469455     0.78500
C962        C  0.86718222  0.68296311  0.03395937     0.77500
C963        C  0.67691768  0.68785632  0.10611934     0.78200
C964        C  0.61539678  0.79103490  0.42937741     0.79000
C965        C  0.78947354  0.86404082  0.04326371     0.78000
Zn966      Zn  0.91612696  0.70179244  0.22587141     1.49700
Zn967      Zn  0.51268333  0.75581742  0.16679892     1.49400
Zn968      Zn  0.96884952  0.80719603  0.26935531     1.49100
Zn969      Zn  0.52878163  0.69353257  0.27607230     1.49500
O970        O  0.98270554  0.73892415  0.23604449    -1.83300
O971        O  0.90995460  0.67363987  0.14873884    -0.73900
O972        O  0.54129060  0.83176774  0.16017317    -0.73700
O973        O  0.89170579  0.81850232  0.28955390    -0.73200
O974        O  0.95452499  0.73894200  0.11415892    -0.73900
O975        O  0.85861113  0.74464541  0.25722346    -0.73500
O976        O  0.49855201  0.86513124  0.22719271    -0.74100
O977        O  0.55715669  0.74268653  0.33879390    -0.73500
O978        O  0.57959032  0.71481110  0.15144631    -0.74200
O979        O  0.51030117  0.81631327  0.33447535    -0.73600
O980        O  0.58701729  0.66434830  0.22189449    -0.74100
O981        O  0.98485112  0.62985068  0.30790956    -0.74000
O982        O  0.90740233  0.63936564  0.27006729    -0.73800
C983        C  0.92983874  0.69558325  0.10835679     0.78000
C984        C  0.53024910  0.87098805  0.18894280     0.78500
C985        C  0.85277279  0.78814640  0.28164576     0.77500
C986        C  0.54427645  0.78821951  0.35769765     0.77800
C987        C  0.60577547  0.68149027  0.17816315     0.79000
C988        C  0.93755473  0.61383430  0.30014514     0.78000
C989        C  0.78267381  0.95668027  0.01836224     0.00700
C990        C  0.75603382  0.00121997  0.03717157    -0.11200
C991        C  0.71250419  0.51860808  0.01087967     0.02900
C992        C  0.70991090  0.51145061  0.45551642     0.00600
C993        C  0.74555721  0.97661099  0.43219475    -0.11100
C994        C  0.77911050  0.94692094  0.46275062     0.02800
H995        H  0.76481294  0.51916424  0.07489185     0.15800
H996        H  0.74830391  0.97163943  0.38998780     0.15800
C997        C  0.81216240  0.91234065  0.43260573     0.37500
C998        C  0.67343913  0.54788837  0.04008490     0.37400
N999        N  0.84073475  0.88918441  0.40603200    -0.42900
N1000       N  0.63932470  0.56987251  0.06038275    -0.42900
C1001       C  0.52414908  0.76472972  0.44989924     0.00700
C1002       C  0.98224612  0.73547148  0.42743293    -0.11200
C1003       C  0.95065544  0.70420571  0.45807582     0.02900
C1004       C  0.95912616  0.70289250  0.01346706     0.00600
C1005       C  0.50840908  0.71887390  0.03092261    -0.11100
C1006       C  0.53373627  0.75795242  0.00468729     0.02800
H1007       H  0.97135032  0.73774524  0.38629308     0.15800
H1008       H  0.52391051  0.70596707  0.06850553     0.15800
C1009       C  0.56363815  0.79233526  0.03817897     0.37500
C1010       C  0.91097123  0.67354993  0.43102184     0.37400
N1011       N  0.58829593  0.81872343  0.06580228    -0.42900
N1012       N  0.87835545  0.65012718  0.40974047    -0.42900
C1013       C  0.95809411  0.52722502  0.27886092     0.00700
C1014       C  0.50496735  0.50629337  0.29957439    -0.11200
C1015       C  0.53409085  0.97058561  0.27130390     0.02900
C1016       C  0.52172562  0.96168607  0.21729923     0.00600
C1017       C  0.97162739  0.97751020  0.20057983    -0.11100
C1018       C  0.94621921  0.01772991  0.22520696     0.02800
H1019       H  0.51755088  0.51442284  0.33957686     0.15800
H1020       H  0.95351292  0.96080684  0.16576385     0.15800
C1021       C  0.90601060  0.54492973  0.19521072     0.37500
C1022       C  0.56484804  0.93552717  0.30370421     0.37400
N1023       N  0.87312263  0.56567114  0.17152208    -0.42900
N1024       N  0.58806815  0.90765376  0.33130460    -0.42900
C1025       C  0.75810694  0.78293646  0.25764064     0.00700
C1026       C  0.70680639  0.77230579  0.27282704    -0.11200
C1027       C  0.68207641  0.73047583  0.24939244     0.02900
C1028       C  0.69525498  0.71632239  0.19676994     0.00600
C1029       C  0.73974412  0.74157267  0.17462839    -0.11100
C1030       C  0.76978334  0.77615314  0.20368546     0.02800
H1031       H  0.69205782  0.78678376  0.31015836     0.15800
H1032       H  0.75403706  0.73280870  0.13552863     0.15800
C1033       C  0.81201806  0.80289677  0.17699980     0.37500
C1034       C  0.65665611  0.69598889  0.28610590     0.37400
N1035       N  0.84618642  0.82338989  0.15553787    -0.42900
N1036       N  0.63702618  0.66762598  0.31553566    -0.42900
C1037       C  0.79712122  0.80307620  0.79902856    -0.01600
C1038       C  0.92074564  0.55747662  0.81446580    -0.01600
C1039       C  0.55669920  0.80207547  0.91596321    -0.01600
C1040       C  0.66516320  0.67402750  0.66477989    -0.01600
C1041       C  0.81029313  0.91964105  0.55792763    -0.01600
C1042       C  0.92388253  0.67215845  0.55182506    -0.01600
C1043       C  0.67362402  0.54691442  0.92278631    -0.01600
C1044       C  0.55321243  0.92637362  0.67962424    -0.01600
Zn1045     Zn  0.00442178  0.55370430  0.96178905     1.49700
Zn1046     Zn  0.55728174  0.94871472  0.00369082     1.49400
Zn1047     Zn  0.95977906  0.00063917  0.56203809     1.49100
Zn1048     Zn  0.94743147  0.94141326  0.94891788     1.49500
O1049       O  0.99099484  0.98470694  0.99241493    -1.83300
O1050       O  0.57936522  0.56557898  0.93401357    -0.73900
O1051       O  0.56482333  0.92363730  0.58192536    -0.73700
O1052       O  0.92643650  0.57545832  0.56860108    -0.73200
O1053       O  0.61155649  0.99284666  0.96912970    -0.73900
O1054       O  0.98235894  0.60825394  0.01222560    -0.73500
O1055       O  0.01961599  0.98959545  0.61383929    -0.74100
O1056       O  0.88644043  0.92203950  0.99936587    -0.73500
O1057       O  0.56682245  0.88442767  0.96170084    -0.74200
O1058       O  0.89759975  0.95397816  0.57942548    -0.73600
O1059       O  0.98965445  0.87289408  0.92407417    -0.74100
O1060       O  0.92318937  0.99040010  0.88453490    -0.74000
O1061       O  0.95893335  0.56850533  0.90025136    -0.73800
C1062       C  0.61785046  0.53478816  0.94205093     0.78000
C1063       C  0.54488625  0.94684525  0.62161955     0.78500
C1064       C  0.94489113  0.61507755  0.54485566     0.77500
C1065       C  0.86932879  0.92941313  0.54623119     0.77800
C1066       C  0.53699820  0.85723881  0.93283922     0.79000
C1067       C  0.93133447  0.53884845  0.87138893     0.78000
Zn1068     Zn  0.70601862  0.99801348  0.67197530     1.49700
Zn1069     Zn  0.80743281  0.95792048  0.73286253     1.49400
Zn1070     Zn  0.74903054  0.56086903  0.77142087     1.49100
Zn1071     Zn  0.69447624  0.94269118  0.78237116     1.49500
O1072       O  0.73842859  0.99019871  0.74082930    -1.83300
O1073       O  0.74517081  0.94598152  0.62278290    -0.73900
O1074       O  0.85802665  0.99615177  0.77976391    -0.73700
O1075       O  0.71431252  0.61785306  0.72655125    -0.73200
O1076       O  0.82660128  0.94445435  0.65300442    -0.73900
O1077       O  0.68663748  0.57795669  0.65439926    -0.73500
O1078       O  0.82673952  0.57599656  0.79392500    -0.74100
O1079       O  0.66723777  0.98785786  0.84662747    -0.73500
O1080       O  0.81274694  0.88828218  0.76470401    -0.74200
O1081       O  0.71029236  0.56347254  0.83814723    -0.73600
O1082       O  0.73959993  0.87905003  0.80997623    -0.74100
O1083       O  0.63345308  0.91199320  0.73356088    -0.74000
O1084       O  0.63525341  0.96970984  0.66929587    -0.73800
C1085       C  0.79368238  0.93535082  0.61562717     0.78000
C1086       C  0.86410245  0.54252963  0.79779183     0.78500
C1087       C  0.68947640  0.61978289  0.68264682     0.77500
C1088       C  0.68058575  0.53342266  0.86434310     0.77800
C1089       C  0.78444314  0.86152215  0.79523901     0.79000
C1090       C  0.61153230  0.93372409  0.69359598     0.78000
Zn1091     Zn  0.80590046  0.76995342  0.97366223     1.49700
Zn1092     Zn  0.70561692  0.71803828  0.91576605     1.49400
Zn1093     Zn  0.75284591  0.66646532  0.51763550     1.49100
Zn1094     Zn  0.69593924  0.78293950  0.52479358     1.49500
O1095       O  0.73933407  0.73544718  0.98435058    -1.83300
O1096       O  0.81343247  0.79126481  0.89473435    -0.73900
O1097       O  0.67601891  0.64328529  0.91038463    -0.73700
O1098       O  0.82922168  0.65202884  0.54276690    -0.73200
O1099       O  0.75455518  0.73965089  0.85742314    -0.73900
O1100       O  0.85918890  0.72548895  0.50853094    -0.73500
O1101       O  0.72993641  0.60999499  0.96867131    -0.74100
O1102       O  0.66692131  0.73472274  0.58836726    -0.73500
O1103       O  0.63938342  0.75688576  0.90246994    -0.74200
O1104       O  0.70791394  0.65757004  0.58141418    -0.73600
O1105       O  0.63631091  0.80823355  0.97216404    -0.74100
O1106       O  0.74151993  0.85012324  0.55130648    -0.74000
O1107       O  0.81862697  0.83519339  0.51529700    -0.73800
C1108       C  0.78802609  0.77671232  0.85376922     0.78000
C1109       C  0.69349490  0.60361606  0.93469451     0.78500
C1110       C  0.86718224  0.68296321  0.53395933     0.77500
C1111       C  0.67691770  0.68785624  0.60611945     0.78200
C1112       C  0.61539678  0.79103484  0.92937747     0.79000
C1113       C  0.78947350  0.86404079  0.54326366     0.78000
Zn1114     Zn  0.91612686  0.70179256  0.72587133     1.49700
Zn1115     Zn  0.51268327  0.75581739  0.66679900     1.49400
Zn1116     Zn  0.96884944  0.80719601  0.76935533     1.49100
Zn1117     Zn  0.52878173  0.69353250  0.77607227     1.49500
O1118       O  0.98270543  0.73892417  0.73604453    -1.83300
O1119       O  0.90995456  0.67363988  0.64873876    -0.73900
O1120       O  0.54129057  0.83176778  0.66017305    -0.73700
O1121       O  0.89170579  0.81850222  0.78955415    -0.73200
O1122       O  0.95452487  0.73894207  0.61415895    -0.73900
O1123       O  0.85861104  0.74464550  0.75722333    -0.73500
O1124       O  0.49855219  0.86513118  0.72719278    -0.74100
O1125       O  0.55715662  0.74268650  0.83879394    -0.73500
O1126       O  0.57959027  0.71481098  0.65144631    -0.74200
O1127       O  0.51030118  0.81631330  0.83447540    -0.73600
O1128       O  0.58701732  0.66434814  0.72189443    -0.74100
O1129       O  0.98485111  0.62985074  0.80790970    -0.74000
O1130       O  0.90740243  0.63936565  0.77006723    -0.73800
C1131       C  0.92983870  0.69558330  0.60835675     0.78000
C1132       C  0.53024915  0.87098807  0.68894277     0.78500
C1133       C  0.85277276  0.78814640  0.78164581     0.77500
C1134       C  0.54427644  0.78821951  0.85769769     0.77800
C1135       C  0.60577546  0.68149015  0.67816311     0.79000
C1136       C  0.93755477  0.61383433  0.80014517     0.78000
C1137       C  0.78267385  0.95668027  0.51836227     0.00700
C1138       C  0.75603383  0.00121993  0.53717158    -0.11200
C1139       C  0.71250413  0.51860792  0.51087964     0.02900
C1140       C  0.70991088  0.51145070  0.95551646     0.00600
C1141       C  0.74555711  0.97661091  0.93219475    -0.11100
C1142       C  0.77911042  0.94692089  0.96275061     0.02800
H1143       H  0.76481287  0.51916410  0.57489180     0.15800
H1144       H  0.74830377  0.97163927  0.88998782     0.15800
C1145       C  0.81216237  0.91234064  0.93260569     0.37500
C1146       C  0.67343906  0.54788823  0.54008488     0.37400
N1147       N  0.84073464  0.88918435  0.90603194    -0.42900
N1148       N  0.63932461  0.56987237  0.56038268    -0.42900
C1149       C  0.52414904  0.76472975  0.94989929     0.00700
C1150       C  0.98224611  0.73547150  0.92743302    -0.11200
C1151       C  0.95065537  0.70420578  0.95807588     0.02900
C1152       C  0.95912617  0.70289249  0.51346700     0.00600
C1153       C  0.50840922  0.71887377  0.53092257    -0.11100
C1154       C  0.53373642  0.75795225  0.50468720     0.02800
H1155       H  0.97135036  0.73774522  0.88629310     0.15800
H1156       H  0.52391053  0.70596704  0.56850560     0.15800
C1157       C  0.56363816  0.79233517  0.53817889     0.37500
C1158       C  0.91097127  0.67354992  0.93102185     0.37400
N1159       N  0.58829583  0.81872335  0.56580224    -0.42900
N1160       N  0.87835564  0.65012701  0.90974038    -0.42900
C1161       C  0.95809422  0.52722509  0.77886081     0.00700
C1162       C  0.50496727  0.50629327  0.79957435    -0.11200
C1163       C  0.53409085  0.97058564  0.77130398     0.02900
C1164       C  0.52172565  0.96168611  0.71729930     0.00600
C1165       C  0.97162745  0.97751028  0.70057990    -0.11100
C1166       C  0.94621914  0.01772985  0.72520710     0.02800
H1167       H  0.51755075  0.51442263  0.83957682     0.15800
H1168       H  0.95351298  0.96080692  0.66576392     0.15800
C1169       C  0.90601055  0.54492977  0.69521065     0.37500
C1170       C  0.56484803  0.93552715  0.80370423     0.37400
N1171       N  0.87312259  0.56567127  0.67152208    -0.42900
N1172       N  0.58806826  0.90765369  0.83130445    -0.42900
C1173       C  0.75810695  0.78293649  0.75764063     0.00700
C1174       C  0.70680640  0.77230579  0.77282700    -0.11200
C1175       C  0.68207648  0.73047576  0.74939247     0.02900
C1176       C  0.69525496  0.71632242  0.69676993     0.00600
C1177       C  0.73974400  0.74157288  0.67462831    -0.11100
C1178       C  0.76978332  0.77615323  0.70368542     0.02800
H1179       H  0.69205772  0.78678386  0.81015826     0.15800
H1180       H  0.75403691  0.73280899  0.63552850     0.15800
C1181       C  0.81201811  0.80289673  0.67699979     0.37500
C1182       C  0.65665611  0.69598883  0.78610587     0.37400
N1183       N  0.84618646  0.82338978  0.65553775    -0.42900
N1184       N  0.63702609  0.66762589  0.81553555    -0.42900
loop_ 
_geom_bond_atom_site_label_1 
_geom_bond_atom_site_label_2 
_geom_bond_distance 
_geom_bond_site_symmetry_2 
_ccdc_geom_bond_type 
C1           C53   1.525       .  S
C1           C72   1.561       .  S
C1           C97   1.538       .  S
C1          C137   1.533       .  S
C2           C31   1.542       .  S
C2           C50   1.555       .  S
C2          C100   1.543       .  S
C2          C125   1.524       .  S
C3           C30   1.551       .  S
C3           C76   1.562       .  S
C3           C98   1.550       .  S
C3          C113   1.533       .  S
C4           C51   1.579       .  S
C4           C75   1.560       .  S
C4           C99   1.568       .  S
C4          C140   1.551       .  S
C5           C29   1.560       .  S
C5           C49   1.577       .  S
C5           C77   1.558       .  S
C5          C101   1.544       .  S
C6           C28   1.558       .  S
C6           C74   1.541       .  S
C6           C95   1.559       .  S
C6          C116   1.544       .  S
C7           C26   1.542       .  S
C7           C52   1.532       .  S
C7           C73   1.561       .  S
C7          C104   1.534       .  S
C8           C27   1.574       .  S
C8           C54   1.543       .  S
C8           C96   1.548       .  S
C8          C128   1.540       .  S
Zn9          O18   1.970       .  S
Zn9          O25   1.977       .  S
Zn9         O606   2.068       .  S
Zn9         O309   1.953   1_545  S
Zn10         O17   1.995       .  S
Zn10         O21   1.967       .  S
Zn10        O163   2.093       .  S
Zn10        O605   1.944   1_455  S
Zn11         O19   2.031       .  S
Zn11         O22   2.038       .  S
Zn11        O312   2.091       .  S
Zn11        O161   1.982   1_554  S
Zn12         O20   2.083       .  S
Zn12         O23   2.144       .  S
Zn12         O24   2.144       .  S
Zn12         O13   1.914       .  S
O13        Zn305   1.953       .  S
O13        Zn602   1.944       .  S
O13        Zn159   1.982       .  S
O14        Zn601   2.068       .  S
O14          C26   1.272       .  A
O15        Zn158   2.093       .  S
O15          C27   1.274       .  A
O16        Zn307   2.091       .  S
O16          C28   1.269       .  A
O17         C322   1.281       .  A
O18         C176   1.280       .  A
O19         C619   1.279       .  A
O20         C177   1.282       .  A
O21          C30   1.262       .  A
O22          C29   1.272       .  A
O23         C622   1.291       .  A
O24         C327   1.296       .  A
O25          C31   1.265       .  A
C26         O313   1.281   1_545  A
C27         O611   1.279       .  A
C28         O166   1.280       .  A
C29         O168   1.282   1_554  A
C30         O615   1.291   1_455  A
C31         O320   1.296   1_545  A
Zn32         O37   2.077       .  S
Zn32         O48   1.950       .  S
Zn32        O337   2.140       .  S
Zn32         O36   1.939       .  S
Zn33         O38   2.006       .  S
Zn33         O40   2.113       .  S
Zn33         O44   1.953       .  S
Zn33         O36   1.955       .  S
Zn34         O39   2.043       .  S
Zn34         O42   2.101       .  S
Zn34         O45   1.966       .  S
Zn34        O332   1.978   1_545  S
Zn35         O43   2.113       .  S
Zn35         O46   2.105       .  S
Zn35         O47   2.136       .  S
Zn35         O36   1.964       .  S
O36        Zn330   1.978       .  S
O37          C49   1.282       .  A
O38         C346   1.275       .  A
O39          C51   1.280       .  A
O40          C49   1.286       .  A
O41        Zn328   2.140   1_545  S
O41          C51   1.285       .  A
O42          C50   1.281       .  A
O43         C348   1.290       .  A
O44          C53   1.264       .  A
O45          C52   1.270       .  A
O46          C53   1.286       .  A
O47          C54   1.281       .  A
O48          C54   1.263       .  A
C50         O334   1.275   1_545  A
C52         O339   1.290   1_545  A
Zn55         O60   2.084       .  S
Zn55        O212   1.975       .  S
Zn55        O219   1.994       .  S
Zn55         O59   1.938       .  S
Zn56         O61   2.054       .  S
Zn56         O63   2.020       .  S
Zn56         O67   1.986       .  S
Zn56         O59   1.988       .  S
Zn57         O62   2.083       .  S
Zn57         O68   2.002       .  S
Zn57        O213   1.987   1_554  S
Zn57        O207   1.978   1_554  S
Zn58         O66   2.163       .  S
Zn58         O70   2.177       .  S
Zn58        O217   2.120   1_554  S
Zn58        O207   1.935   1_554  S
O59        Zn205   1.978       .  S
O59        Zn206   1.935       .  S
O60          C72   1.278       .  A
O61          C73   1.263       .  A
O62          C74   1.272       .  A
O63          C72   1.279       .  A
O64        Zn203   1.975   1_554  S
O64          C74   1.276       .  A
O65        Zn205   1.987       .  S
O65          C73   1.276       .  A
O66          C75   1.300       .  A
O67          C76   1.264       .  A
O68          C75   1.271       .  A
O69        Zn206   2.120       .  S
O69          C76   1.284       .  A
O70          C77   1.294       .  A
O71        Zn203   1.994   1_554  S
O71          C77   1.264       .  A
Zn78         O83   2.088       .  S
Zn78         O87   1.996       .  S
Zn78         O94   1.960       .  S
Zn78         O82   1.965       .  S
Zn79         O84   2.077       .  S
Zn79         O90   2.040       .  S
Zn79        O678   2.040   1_455  S
Zn79        O674   1.968   1_455  S
Zn80         O85   2.059       .  S
Zn80        O680   1.978       .  S
Zn80        O683   1.972       .  S
Zn80         O82   1.964       .  S
Zn81         O89   2.148       .  S
Zn81         O92   2.160       .  S
Zn81        O685   2.137   1_455  S
Zn81        O674   1.933   1_455  S
O82        Zn671   1.968       .  S
O82        Zn673   1.933       .  S
O83          C95   1.276       .  A
O84          C96   1.268       .  A
O85          C97   1.277       .  A
O86        Zn671   2.040       .  S
O86          C95   1.281       .  A
O87          C97   1.277       .  A
O88        Zn672   1.978       .  S
O88          C96   1.276   1_655  A
O89          C98   1.296       .  A
O90          C99   1.273       .  A
O91        Zn672   1.972   1_455  S
O91          C98   1.267       .  A
O92          C99   1.288       .  A
O93        Zn673   2.137       .  S
O93         C100   1.291       .  A
O94         C100   1.261       .  A
C101        C102   1.405       .  A
C101        C254   1.434   1_554  A
C102        C399   1.367       .  A
C102        H403   1.083       .  S
C103        C398   1.367       .  A
C103        C252   1.417   1_554  A
C103        C110   1.450       .  S
C104        C251   1.417       .  A
C104        C401   1.402   1_545  A
C105        C106   1.378       .  A
C105        C400   1.402       .  A
C105        H108   1.080       .  S
C106        C249   1.434       .  A
C106        C109   1.440       .  S
H107        C398   1.082       .  S
C109        N111   1.156       .  T
C110        N112   1.157       .  T
C113        C706   1.423   1_455  A
C113        C266   1.420       .  A
C114        C115   1.379       .  A
C114        C705   1.423       .  A
C114        H119   1.080       .  S
C115        C264   1.421       .  A
C115        C122   1.451       .  S
C116        C263   1.421   1_554  A
C116        C709   1.395       .  A
C117        C118   1.364       .  A
C117        C708   1.395   1_455  A
C117        H120   1.081       .  S
C118        C261   1.420   1_554  A
C118        C121   1.438       .  S
C121        N123   1.156       .  T
C122        N124   1.158       .  T
C125        C718   1.409       .  A
C125        C426   1.413       .  A
C126        C717   1.409   1_455  A
C126        C423   1.376   1_545  A
C126        H131   1.083       .  S
C127        C128   1.422       .  A
C127        C422   1.376       .  A
C127        C134   1.443       .  S
C128        C721   1.405   1_455  A
C129        C130   1.363       .  A
C129        C720   1.405       .  A
C129        H132   1.082       .  S
C130        C421   1.413       .  A
C130        C429   1.450       .  S
C133        C426   1.450       .  S
C133        N135   1.157       .  T
C134        N136   1.158       .  T
C137        C138   1.396       .  A
C137        C142   1.412       .  A
C138        C139   1.373       .  A
C138        H143   1.085       .  S
C139        C140   1.424       .  A
C139        C146   1.439       .  S
C140        C141   1.426       .  A
C141        C142   1.380       .  A
C141        H144   1.081       .  S
C142        C145   1.449       .  S
C145        N147   1.157       .  T
C146        N148   1.156       .  T
C149        C201   1.525       .  S
C149        C220   1.561       .  S
C149        C245   1.538       .  S
C149        C285   1.533       .  S
C150        C179   1.542       .  S
C150        C198   1.555       .  S
C150        C248   1.543       .  S
C150        C273   1.524       .  S
C151        C178   1.551       .  S
C151        C224   1.562       .  S
C151        C246   1.550       .  S
C151        C261   1.533       .  S
C152        C199   1.579       .  S
C152        C223   1.560       .  S
C152        C247   1.568       .  S
C152        C288   1.551       .  S
C153        C177   1.560       .  S
C153        C197   1.577       .  S
C153        C225   1.558       .  S
C153        C249   1.544       .  S
C154        C176   1.558       .  S
C154        C222   1.541       .  S
C154        C243   1.559       .  S
C154        C264   1.544       .  S
C155        C174   1.542       .  S
C155        C200   1.532       .  S
C155        C221   1.561       .  S
C155        C252   1.534       .  S
C156        C175   1.574       .  S
C156        C202   1.543       .  S
C156        C244   1.548       .  S
C156        C276   1.540       .  S
Zn157       O754   2.068       .  S
Zn157       O166   1.970   1_556  S
Zn157       O173   1.977       .  S
Zn157       O457   1.953   1_545  S
Zn158       O165   1.995   1_554  S
Zn158       O169   1.967   1_554  S
Zn158       O753   1.944   1_454  S
Zn159       O460   2.091       .  S
Zn159       O167   2.031       .  S
Zn159       O170   2.038       .  S
Zn160       O168   2.083       .  S
Zn160       O171   2.144       .  S
Zn160       O172   2.144       .  S
Zn160       O161   1.914       .  S
O161       Zn453   1.953       .  S
O161       Zn750   1.944   1_556  S
O162       Zn749   2.068       .  S
O162        C174   1.272       .  A
O163        C175   1.274       .  A
O164       Zn455   2.091       .  S
O164        C176   1.269       .  A
O165        C470   1.281       .  A
O167        C767   1.279       .  A
O169        C178   1.262       .  A
O170        C177   1.272       .  A
O171        C770   1.291       .  A
O172        C475   1.296       .  A
O173        C179   1.265       .  A
C174        O461   1.281   1_545  A
C175        O759   1.279       .  A
C178        O763   1.291   1_455  A
C179        O468   1.296   1_545  A
Zn180       O185   2.077       .  S
Zn180       O485   2.140       .  S
Zn180       O196   1.950       .  S
Zn180       O184   1.939       .  S
Zn181       O186   2.006       .  S
Zn181       O188   2.113       .  S
Zn181       O192   1.953       .  S
Zn181       O184   1.955       .  S
Zn182       O187   2.043       .  S
Zn182       O190   2.101       .  S
Zn182       O193   1.966       .  S
Zn182       O480   1.978   1_545  S
Zn183       O191   2.113       .  S
Zn183       O194   2.105       .  S
Zn183       O195   2.136       .  S
Zn183       O184   1.964       .  S
O184       Zn478   1.978       .  S
O185        C197   1.282       .  A
O186        C494   1.275       .  A
O187        C199   1.280       .  A
O188        C197   1.286       .  A
O189       Zn476   2.140   1_545  S
O189        C199   1.285       .  A
O190        C198   1.281       .  A
O191        C496   1.290       .  A
O192        C201   1.264       .  A
O193        C200   1.270       .  A
O194        C201   1.286       .  A
O195        C202   1.281       .  A
O196        C202   1.263       .  A
C198        O482   1.275   1_545  A
C200        O487   1.290   1_545  A
Zn203       O208   2.084       .  S
Zn203       O207   1.938       .  S
Zn204       O209   2.054       .  S
Zn204       O211   2.020       .  S
Zn204       O215   1.986       .  S
Zn204       O207   1.988       .  S
Zn205       O210   2.083       .  S
Zn205       O216   2.002       .  S
Zn206       O214   2.163       .  S
Zn206       O218   2.177       .  S
O208        C220   1.278       .  A
O209        C221   1.263       .  A
O210        C222   1.272       .  A
O211        C220   1.279       .  A
O212        C222   1.276       .  A
O213        C221   1.276       .  A
O214        C223   1.300       .  A
O215        C224   1.264       .  A
O216        C223   1.271       .  A
O217        C224   1.284       .  A
O218        C225   1.294       .  A
O219        C225   1.264       .  A
Zn226       O231   2.088       .  S
Zn226       O235   1.996       .  S
Zn226       O242   1.960       .  S
Zn226       O230   1.965       .  S
Zn227       O232   2.077       .  S
Zn227       O826   2.040   1_455  S
Zn227       O238   2.040       .  S
Zn227       O822   1.968   1_455  S
Zn228       O233   2.059       .  S
Zn228       O828   1.978       .  S
Zn228       O831   1.972       .  S
Zn228       O230   1.964       .  S
Zn229       O237   2.148       .  S
Zn229       O240   2.160       .  S
Zn229       O833   2.137   1_455  S
Zn229       O822   1.933   1_455  S
O230       Zn819   1.968       .  S
O230       Zn821   1.933       .  S
O231        C243   1.276       .  A
O232        C244   1.268       .  A
O233        C245   1.277       .  A
O234       Zn819   2.040       .  S
O234        C243   1.281       .  A
O235        C245   1.277       .  A
O236       Zn820   1.978       .  S
O236        C244   1.276   1_655  A
O237        C246   1.296       .  A
O238        C247   1.273       .  A
O239       Zn820   1.972   1_455  S
O239        C246   1.267       .  A
O240        C247   1.288       .  A
O241       Zn821   2.137       .  S
O241        C248   1.291       .  A
O242        C248   1.261       .  A
C249        C250   1.405       .  A
C250        C547   1.367       .  A
C250        H551   1.083       .  S
C251        C546   1.367       .  A
C251        C258   1.450       .  S
C252        C549   1.402   1_545  A
C253        C548   1.402       .  A
C253        C254   1.378       .  A
C253        H256   1.080       .  S
C254        C257   1.440       .  S
H255        C546   1.083       .  S
C257        N259   1.156       .  T
C258        N260   1.157       .  T
C261        C854   1.423   1_455  A
C262        C853   1.423       .  A
C262        C263   1.379       .  A
C262        H267   1.080       .  S
C263        C270   1.451       .  S
C264        C857   1.395       .  A
C265        C856   1.395   1_455  A
C265        C266   1.364       .  A
C265        H268   1.081       .  S
C266        C269   1.438       .  S
C269        N271   1.156       .  T
C270        N272   1.158       .  T
C273        C866   1.409       .  A
C273        C574   1.413       .  A
C274        C865   1.409   1_455  A
C274        C571   1.376   1_545  A
C274        H279   1.083       .  S
C275        C570   1.376       .  A
C275        C276   1.422       .  A
C275        C282   1.443       .  S
C276        C869   1.405   1_455  A
C277        C868   1.405       .  A
C277        C278   1.363       .  A
C277        H280   1.082       .  S
C278        C569   1.413       .  A
C278        C577   1.450       .  S
C281        C574   1.450       .  S
C281        N283   1.157       .  T
C282        N284   1.158       .  T
C285        C286   1.396       .  A
C285        C290   1.412       .  A
C286        C287   1.373       .  A
C286        H291   1.085       .  S
C287        C288   1.424       .  A
C287        C294   1.439       .  S
C288        C289   1.426       .  A
C289        C290   1.380       .  A
C289        H292   1.081       .  S
C290        C293   1.449       .  S
C293        N295   1.157       .  T
C294        N296   1.156       .  T
C297        C349   1.525       .  S
C297        C368   1.561       .  S
C297        C393   1.538       .  S
C297        C433   1.533       .  S
C298        C327   1.542       .  S
C298        C346   1.555       .  S
C298        C396   1.543       .  S
C298        C421   1.524       .  S
C299        C326   1.551       .  S
C299        C372   1.562       .  S
C299        C394   1.550       .  S
C299        C409   1.533       .  S
C300        C347   1.579       .  S
C300        C371   1.560       .  S
C300        C395   1.568       .  S
C300        C436   1.551       .  S
C301        C325   1.560       .  S
C301        C345   1.577       .  S
C301        C373   1.558       .  S
C301        C397   1.544       .  S
C302        C324   1.558       .  S
C302        C370   1.541       .  S
C302        C391   1.559       .  S
C302        C412   1.544       .  S
C303        C322   1.542       .  S
C303        C348   1.532       .  S
C303        C369   1.561       .  S
C303        C400   1.534       .  S
C304        C323   1.574       .  S
C304        C350   1.543       .  S
C304        C392   1.548       .  S
C304        C424   1.540       .  S
Zn305       O902   2.068       .  S
Zn305       O314   1.970       .  S
Zn305       O321   1.977       .  S
Zn306       O459   2.093       .  S
Zn306       O313   1.995       .  S
Zn306       O317   1.967       .  S
Zn306       O901   1.944   1_455  S
Zn307       O315   2.031   1_545  S
Zn307       O318   2.038   1_545  S
Zn307       O457   1.982   1_544  S
Zn308       O316   2.083       .  S
Zn308       O319   2.144       .  S
Zn308       O320   2.144       .  S
Zn308       O309   1.914       .  S
O309       Zn898   1.944       .  S
O309       Zn455   1.982   1_565  S
O310       Zn897   2.068       .  S
O310        C322   1.272       .  A
O311       Zn454   2.093       .  S
O311        C323   1.274       .  A
O312        C324   1.269       .  A
O314        C472   1.280       .  A
O315        C915   1.279       .  A
O316        C473   1.282       .  A
O317        C326   1.262       .  A
O318        C325   1.272       .  A
O319        C918   1.291       .  A
O321        C327   1.265       .  A
C323        O907   1.279       .  A
C324        O462   1.280       .  A
C325        O464   1.282   1_554  A
C326        O911   1.291   1_455  A
Zn328       O333   2.077       .  S
Zn328       O344   1.950       .  S
Zn328       O332   1.939       .  S
Zn329       O334   2.006       .  S
Zn329       O336   2.113       .  S
Zn329       O340   1.953       .  S
Zn329       O332   1.955       .  S
Zn330       O335   2.043       .  S
Zn330       O338   2.101       .  S
Zn330       O341   1.966       .  S
Zn331       O339   2.113       .  S
Zn331       O342   2.104       .  S
Zn331       O343   2.136       .  S
Zn331       O332   1.964       .  S
O333        C345   1.282       .  A
O335        C347   1.280       .  A
O336        C345   1.286       .  A
O337        C347   1.285       .  A
O338        C346   1.281       .  A
O340        C349   1.264       .  A
O341        C348   1.270       .  A
O342        C349   1.286       .  A
O343        C350   1.281       .  A
O344        C350   1.263       .  A
Zn351       O356   2.084       .  S
Zn351       O508   1.975       .  S
Zn351       O515   1.994       .  S
Zn351       O355   1.938       .  S
Zn352       O357   2.054       .  S
Zn352       O359   2.020       .  S
Zn352       O363   1.986       .  S
Zn352       O355   1.988       .  S
Zn353       O358   2.083       .  S
Zn353       O509   1.987   1_554  S
Zn353       O364   2.002       .  S
Zn353       O503   1.978   1_554  S
Zn354       O362   2.163       .  S
Zn354       O513   2.120   1_554  S
Zn354       O366   2.177       .  S
Zn354       O503   1.935   1_554  S
O355       Zn501   1.978       .  S
O355       Zn502   1.935       .  S
O356        C368   1.278       .  A
O357        C369   1.263       .  A
O358        C370   1.272       .  A
O359        C368   1.279       .  A
O360       Zn499   1.975   1_554  S
O360        C370   1.276       .  A
O361       Zn501   1.987       .  S
O361        C369   1.276       .  A
O362        C371   1.300       .  A
O363        C372   1.264       .  A
O364        C371   1.271       .  A
O365       Zn502   2.120       .  S
O365        C372   1.284       .  A
O366        C373   1.294       .  A
O367       Zn499   1.994   1_554  S
O367        C373   1.264       .  A
Zn374       O379   2.088       .  S
Zn374       O383   1.996       .  S
Zn374       O390   1.960       .  S
Zn374       O378   1.965       .  S
Zn375       O380   2.077       .  S
Zn375       O974   2.040   1_455  S
Zn375       O386   2.040       .  S
Zn375       O970   1.968   1_455  S
Zn376       O381   2.059       .  S
Zn376       O976   1.978       .  S
Zn376       O979   1.972       .  S
Zn376       O378   1.964       .  S
Zn377       O385   2.148       .  S
Zn377       O388   2.160       .  S
Zn377       O981   2.137   1_455  S
Zn377       O970   1.933   1_455  S
O378       Zn967   1.968       .  S
O378       Zn969   1.933       .  S
O379        C391   1.276       .  A
O380        C392   1.268       .  A
O381        C393   1.277       .  A
O382       Zn967   2.040       .  S
O382        C391   1.281       .  A
O383        C393   1.277       .  A
O384       Zn968   1.978       .  S
O384        C392   1.276   1_655  A
O385        C394   1.296       .  A
O386        C395   1.273       .  A
O387       Zn968   1.972   1_455  S
O387        C394   1.267       .  A
O388        C395   1.288       .  A
O389       Zn969   2.137       .  S
O389        C396   1.291       .  A
O390        C396   1.261       .  A
C397        C398   1.405   1_565  A
C397        C550   1.434   1_554  A
C399        C548   1.417   1_554  A
C399        C406   1.450       .  S
C400        C547   1.417       .  A
C401        C402   1.378       .  A
C401        H404   1.080       .  S
C402        C545   1.434       .  A
C402        C405   1.440       .  S
C405        N407   1.156       .  T
C406        N408   1.157       .  T
C409       C1002   1.423   1_455  A
C409        C562   1.420       .  A
C410       C1001   1.423       .  A
C410        C411   1.379       .  A
C410        H415   1.080       .  S
C411        C560   1.421       .  A
C411        C418   1.451       .  S
C412        C559   1.421   1_554  A
C412       C1005   1.395       .  A
C413       C1004   1.395   1_455  A
C413        C414   1.364       .  A
C413        H416   1.081       .  S
C414        C557   1.420   1_554  A
C414        C417   1.438       .  S
C417        N419   1.156       .  T
C418        N420   1.158       .  T
C421       C1014   1.409       .  A
C422       C1013   1.409   1_455  A
C422        H427   1.083       .  S
C423        C424   1.422       .  A
C423        C430   1.443       .  S
C424       C1017   1.405   1_455  A
C425       C1016   1.405       .  A
C425        C426   1.363   1_565  A
C425        H428   1.082       .  S
C429        N431   1.157       .  T
C430        N432   1.158       .  T
C433        C434   1.396       .  A
C433        C438   1.412       .  A
C434        C435   1.373       .  A
C434        H439   1.085       .  S
C435        C436   1.424       .  A
C435        C442   1.439       .  S
C436        C437   1.426       .  A
C437        C438   1.380       .  A
C437        H440   1.081       .  S
C438        C441   1.449       .  S
C441        N443   1.157       .  T
C442        N444   1.156       .  T
C445        C497   1.525       .  S
C445        C516   1.561       .  S
C445        C541   1.538       .  S
C445        C581   1.533       .  S
C446        C475   1.542       .  S
C446        C494   1.555       .  S
C446        C544   1.543       .  S
C446        C569   1.524       .  S
C447        C474   1.551       .  S
C447        C520   1.562       .  S
C447        C542   1.550       .  S
C447        C557   1.533       .  S
C448        C495   1.579       .  S
C448        C519   1.560       .  S
C448        C543   1.568       .  S
C448        C584   1.551       .  S
C449        C473   1.560       .  S
C449        C493   1.577       .  S
C449        C521   1.558       .  S
C449        C545   1.544       .  S
C450        C472   1.558       .  S
C450        C518   1.541       .  S
C450        C539   1.559       .  S
C450        C560   1.544       .  S
C451        C470   1.542       .  S
C451        C496   1.532       .  S
C451        C517   1.561       .  S
C451        C548   1.534       .  S
C452        C471   1.574       .  S
C452        C498   1.543       .  S
C452        C540   1.548       .  S
C452        C572   1.540       .  S
Zn453      O1050   2.068       .  S
Zn453       O462   1.970   1_556  S
Zn453       O469   1.977       .  S
Zn454       O461   1.995   1_554  S
Zn454       O465   1.967   1_554  S
Zn454      O1049   1.944   1_454  S
Zn455       O463   2.031   1_545  S
Zn455       O466   2.038   1_545  S
Zn456       O464   2.083       .  S
Zn456       O467   2.144       .  S
Zn456       O468   2.144       .  S
Zn456       O457   1.914       .  S
O457      Zn1046   1.944   1_556  S
O458      Zn1045   2.068       .  S
O458        C470   1.272       .  A
O459        C471   1.274       .  A
O460        C472   1.269       .  A
O463       C1063   1.279       .  A
O465        C474   1.262       .  A
O466        C473   1.272       .  A
O467       C1066   1.291       .  A
O469        C475   1.265       .  A
C471       O1055   1.279       .  A
C474       O1059   1.291   1_455  A
Zn476       O481   2.077       .  S
Zn476       O492   1.950       .  S
Zn476       O480   1.939       .  S
Zn477       O482   2.006       .  S
Zn477       O484   2.113       .  S
Zn477       O488   1.953       .  S
Zn477       O480   1.955       .  S
Zn478       O483   2.043       .  S
Zn478       O486   2.101       .  S
Zn478       O489   1.966       .  S
Zn479       O487   2.113       .  S
Zn479       O490   2.104       .  S
Zn479       O491   2.136       .  S
Zn479       O480   1.964       .  S
O481        C493   1.282       .  A
O483        C495   1.280       .  A
O484        C493   1.286       .  A
O485        C495   1.285       .  A
O486        C494   1.281       .  A
O488        C497   1.264       .  A
O489        C496   1.270       .  A
O490        C497   1.286       .  A
O491        C498   1.281       .  A
O492        C498   1.263       .  A
Zn499       O504   2.084       .  S
Zn499       O503   1.938       .  S
Zn500       O505   2.054       .  S
Zn500       O507   2.020       .  S
Zn500       O511   1.986       .  S
Zn500       O503   1.988       .  S
Zn501       O506   2.083       .  S
Zn501       O512   2.002       .  S
Zn502       O510   2.163       .  S
Zn502       O514   2.177       .  S
O504        C516   1.278       .  A
O505        C517   1.263       .  A
O506        C518   1.272       .  A
O507        C516   1.279       .  A
O508        C518   1.276       .  A
O509        C517   1.276       .  A
O510        C519   1.300       .  A
O511        C520   1.264       .  A
O512        C519   1.271       .  A
O513        C520   1.284       .  A
O514        C521   1.294       .  A
O515        C521   1.264       .  A
Zn522       O527   2.088       .  S
Zn522       O531   1.996       .  S
Zn522       O538   1.960       .  S
Zn522       O526   1.965       .  S
Zn523       O528   2.077       .  S
Zn523      O1122   2.040   1_455  S
Zn523       O534   2.040       .  S
Zn523      O1118   1.968   1_455  S
Zn524       O529   2.059       .  S
Zn524      O1124   1.978       .  S
Zn524      O1127   1.972       .  S
Zn524       O526   1.964       .  S
Zn525       O533   2.148       .  S
Zn525       O536   2.160       .  S
Zn525      O1129   2.137   1_455  S
Zn525      O1118   1.933   1_455  S
O526      Zn1115   1.968       .  S
O526      Zn1117   1.933       .  S
O527        C539   1.276       .  A
O528        C540   1.268       .  A
O529        C541   1.277       .  A
O530      Zn1115   2.040       .  S
O530        C539   1.281       .  A
O531        C541   1.277       .  A
O532      Zn1116   1.978       .  S
O532        C540   1.276   1_655  A
O533        C542   1.296       .  A
O534        C543   1.273       .  A
O535      Zn1116   1.972   1_455  S
O535        C542   1.267       .  A
O536        C543   1.288       .  A
O537      Zn1117   2.137       .  S
O537        C544   1.291       .  A
O538        C544   1.261       .  A
C545        C546   1.405   1_565  A
C547        C554   1.450       .  S
C549        C550   1.378       .  A
C549        H552   1.080       .  S
C550        C553   1.440       .  S
C553        N555   1.156       .  T
C554        N556   1.157       .  T
C557       C1150   1.423   1_455  A
C558       C1149   1.423       .  A
C558        C559   1.379       .  A
C558        H563   1.080       .  S
C559        C566   1.451       .  S
C560       C1153   1.395       .  A
C561       C1152   1.395   1_455  A
C561        C562   1.364       .  A
C561        H564   1.081       .  S
C562        C565   1.438       .  S
C565        N567   1.156       .  T
C566        N568   1.158       .  T
C569       C1162   1.409       .  A
C570       C1161   1.409   1_455  A
C570        H575   1.083       .  S
C571        C572   1.422       .  A
C571        C578   1.443       .  S
C572       C1165   1.405   1_455  A
C573       C1164   1.405       .  A
C573        C574   1.363   1_565  A
C573        H576   1.082       .  S
C577        N579   1.157       .  T
C578        N580   1.158       .  T
C581        C582   1.396       .  A
C581        C586   1.412       .  A
C582        C583   1.373       .  A
C582        H587   1.085       .  S
C583        C584   1.424       .  A
C583        C590   1.439       .  S
C584        C585   1.426       .  A
C585        C586   1.380       .  A
C585        H588   1.081       .  S
C586        C589   1.449       .  S
C589        N591   1.157       .  T
C590        N592   1.156       .  T
C593        C645   1.525       .  S
C593        C664   1.561       .  S
C593        C689   1.538       .  S
C593        C729   1.533       .  S
C594        C623   1.542       .  S
C594        C642   1.555       .  S
C594        C692   1.543       .  S
C594        C717   1.524       .  S
C595        C622   1.551       .  S
C595        C668   1.562       .  S
C595        C690   1.550       .  S
C595        C705   1.533       .  S
C596        C643   1.579       .  S
C596        C667   1.560       .  S
C596        C691   1.568       .  S
C596        C732   1.551       .  S
C597        C621   1.560       .  S
C597        C641   1.577       .  S
C597        C669   1.558       .  S
C597        C693   1.544       .  S
C598        C620   1.558       .  S
C598        C666   1.541       .  S
C598        C687   1.559       .  S
C598        C708   1.544       .  S
C599        C618   1.542       .  S
C599        C644   1.532       .  S
C599        C665   1.561       .  S
C599        C696   1.534       .  S
C600        C619   1.574       .  S
C600        C646   1.543       .  S
C600        C688   1.548       .  S
C600        C720   1.540       .  S
Zn601       O610   1.970   1_455  S
Zn601       O617   1.977   1_455  S
Zn601       O901   1.953   1_445  S
Zn602       O755   2.093       .  S
Zn602       O609   1.995       .  S
Zn602       O613   1.967       .  S
Zn603       O904   2.091       .  S
Zn603       O611   2.031   1_655  S
Zn603       O614   2.038       .  S
Zn603       O753   1.982   1_554  S
Zn604       O612   2.083       .  S
Zn604       O615   2.144       .  S
Zn604       O616   2.144       .  S
Zn604       O605   1.914       .  S
O605       Zn897   1.953   1_655  S
O605       Zn751   1.982       .  S
O606        C618   1.272       .  A
O607       Zn750   2.093       .  S
O607        C619   1.274       .  A
O608       Zn899   2.091       .  S
O608        C620   1.269       .  A
O609        C914   1.281       .  A
O610        C768   1.280       .  A
O612        C769   1.282       .  A
O613        C622   1.262       .  A
O614        C621   1.272       .  A
O616        C919   1.296       .  A
O617        C623   1.265       .  A
C618        O905   1.281   1_545  A
C620        O758   1.280       .  A
C621        O760   1.282   1_554  A
C623        O912   1.296   1_545  A
Zn624       O629   2.077       .  S
Zn624       O929   2.140       .  S
Zn624       O640   1.950       .  S
Zn624       O628   1.939       .  S
Zn625       O630   2.006       .  S
Zn625       O632   2.113       .  S
Zn625       O636   1.953       .  S
Zn625       O628   1.955       .  S
Zn626       O631   2.043       .  S
Zn626       O634   2.101       .  S
Zn626       O637   1.966       .  S
Zn626       O924   1.978   1_545  S
Zn627       O635   2.113       .  S
Zn627       O638   2.105       .  S
Zn627       O639   2.136       .  S
Zn627       O628   1.964       .  S
O628       Zn922   1.978       .  S
O629        C641   1.282       .  A
O630        C938   1.275       .  A
O631        C643   1.280       .  A
O632        C641   1.286       .  A
O633       Zn920   2.140   1_545  S
O633        C643   1.285       .  A
O634        C642   1.281       .  A
O635        C940   1.290       .  A
O636        C645   1.264       .  A
O637        C644   1.270       .  A
O638        C645   1.286       .  A
O639        C646   1.281       .  A
O640        C646   1.263       .  A
C642        O926   1.275   1_545  A
C644        O931   1.290   1_545  A
Zn647       O652   2.084       .  S
Zn647       O804   1.975       .  S
Zn647       O811   1.994       .  S
Zn647       O651   1.938       .  S
Zn648       O653   2.054       .  S
Zn648       O655   2.020       .  S
Zn648       O659   1.986       .  S
Zn648       O651   1.988       .  S
Zn649       O654   2.083       .  S
Zn649       O805   1.987   1_554  S
Zn649       O660   2.002       .  S
Zn649       O799   1.978   1_554  S
Zn650       O658   2.163       .  S
Zn650       O809   2.120   1_554  S
Zn650       O662   2.177       .  S
Zn650       O799   1.935   1_554  S
O651       Zn797   1.978       .  S
O651       Zn798   1.935       .  S
O652        C664   1.278       .  A
O653        C665   1.263       .  A
O654        C666   1.272       .  A
O655        C664   1.279       .  A
O656       Zn795   1.975   1_554  S
O656        C666   1.276       .  A
O657       Zn797   1.987       .  S
O657        C665   1.276       .  A
O658        C667   1.300       .  A
O659        C668   1.264       .  A
O660        C667   1.271       .  A
O661       Zn798   2.120       .  S
O661        C668   1.284       .  A
O662        C669   1.294       .  A
O663       Zn795   1.994   1_554  S
O663        C669   1.264       .  A
Zn670       O675   2.088       .  S
Zn670       O679   1.996       .  S
Zn670       O686   1.960       .  S
Zn670       O674   1.965       .  S
Zn671       O676   2.077       .  S
Zn671       O682   2.040       .  S
Zn672       O677   2.059       .  S
Zn672       O674   1.964       .  S
Zn673       O681   2.148       .  S
Zn673       O684   2.160       .  S
O675        C687   1.276       .  A
O676        C688   1.268       .  A
O677        C689   1.277       .  A
O678        C687   1.281       .  A
O679        C689   1.277       .  A
O680        C688   1.276       .  A
O681        C690   1.296       .  A
O682        C691   1.273       .  A
O683        C690   1.267       .  A
O684        C691   1.288       .  A
O685        C692   1.291       .  A
O686        C692   1.261       .  A
C693        C694   1.405       .  A
C693        C846   1.434   1_554  A
C694        C991   1.367       .  A
C694        H995   1.083       .  S
C695        C990   1.367       .  A
C695        C844   1.417   1_554  A
C695        C702   1.450       .  S
C696        C843   1.417       .  A
C696        C993   1.402   1_545  A
C697        C992   1.402       .  A
C697        C698   1.378       .  A
C697        H700   1.080       .  S
C698        C841   1.434       .  A
C698        C701   1.440       .  S
H699        C990   1.082       .  S
C701        N703   1.156       .  T
C702        N704   1.157       .  T
C705        C858   1.420       .  A
C706        C707   1.379       .  A
C706        H711   1.080       .  S
C707        C856   1.421       .  A
C707        C714   1.451       .  S
C708        C855   1.421   1_554  A
C709        C710   1.364       .  A
C709        H712   1.081       .  S
C710        C853   1.420   1_554  A
C710        C713   1.438       .  S
C713        N715   1.156       .  T
C714        N716   1.158       .  T
C717       C1018   1.413       .  A
C718       C1015   1.376   1_545  A
C718        H723   1.083       .  S
C719       C1014   1.376       .  A
C719        C720   1.422       .  A
C719        C726   1.443       .  S
C721        C722   1.363       .  A
C721        H724   1.082       .  S
C722       C1013   1.413       .  A
C722       C1021   1.450       .  S
C725       C1018   1.450       .  S
C725        N727   1.157       .  T
C726        N728   1.158       .  T
C729        C730   1.396       .  A
C729        C734   1.412       .  A
C730        C731   1.373       .  A
C730        H735   1.085       .  S
C731        C732   1.424       .  A
C731        C738   1.439       .  S
C732        C733   1.426       .  A
C733        C734   1.380       .  A
C733        H736   1.081       .  S
C734        C737   1.449       .  S
C737        N739   1.157       .  T
C738        N740   1.156       .  T
C741        C793   1.525       .  S
C741        C812   1.561       .  S
C741        C837   1.538       .  S
C741        C877   1.533       .  S
C742        C771   1.542       .  S
C742        C790   1.555       .  S
C742        C840   1.543       .  S
C742        C865   1.524       .  S
C743        C770   1.551       .  S
C743        C816   1.562       .  S
C743        C838   1.550       .  S
C743        C853   1.533       .  S
C744        C791   1.579       .  S
C744        C815   1.560       .  S
C744        C839   1.568       .  S
C744        C880   1.551       .  S
C745        C769   1.560       .  S
C745        C789   1.577       .  S
C745        C817   1.558       .  S
C745        C841   1.544       .  S
C746        C768   1.558       .  S
C746        C814   1.541       .  S
C746        C835   1.559       .  S
C746        C856   1.544       .  S
C747        C766   1.542       .  S
C747        C792   1.532       .  S
C747        C813   1.561       .  S
C747        C844   1.534       .  S
C748        C767   1.574       .  S
C748        C794   1.543       .  S
C748        C836   1.548       .  S
C748        C868   1.540       .  S
Zn749       O758   1.970   1_456  S
Zn749       O765   1.977   1_455  S
Zn749      O1049   1.953   1_445  S
Zn750       O757   1.995   1_554  S
Zn750       O761   1.967   1_554  S
Zn751      O1052   2.091       .  S
Zn751       O759   2.031   1_655  S
Zn751       O762   2.038       .  S
Zn752       O760   2.083       .  S
Zn752       O763   2.144       .  S
Zn752       O764   2.144       .  S
Zn752       O753   1.914       .  S
O753      Zn1045   1.953   1_655  S
O754        C766   1.272       .  A
O755        C767   1.274       .  A
O756      Zn1047   2.091       .  S
O756        C768   1.269       .  A
O757       C1062   1.281       .  A
O761        C770   1.262       .  A
O762        C769   1.272       .  A
O764       C1067   1.296       .  A
O765        C771   1.265       .  A
C766       O1053   1.281   1_545  A
C771       O1060   1.296   1_545  A
Zn772       O777   2.077       .  S
Zn772      O1077   2.140       .  S
Zn772       O788   1.950       .  S
Zn772       O776   1.939       .  S
Zn773       O778   2.006       .  S
Zn773       O780   2.113       .  S
Zn773       O784   1.953       .  S
Zn773       O776   1.955       .  S
Zn774       O779   2.043       .  S
Zn774       O782   2.101       .  S
Zn774       O785   1.966       .  S
Zn774      O1072   1.978   1_545  S
Zn775       O783   2.113       .  S
Zn775       O786   2.105       .  S
Zn775       O787   2.136       .  S
Zn775       O776   1.964       .  S
O776      Zn1070   1.978       .  S
O777        C789   1.282       .  A
O778       C1086   1.275       .  A
O779        C791   1.280       .  A
O780        C789   1.286       .  A
O781      Zn1068   2.140   1_545  S
O781        C791   1.285       .  A
O782        C790   1.281       .  A
O783       C1088   1.290       .  A
O784        C793   1.264       .  A
O785        C792   1.270       .  A
O786        C793   1.286       .  A
O787        C794   1.281       .  A
O788        C794   1.263       .  A
C790       O1074   1.275   1_545  A
C792       O1079   1.290   1_545  A
Zn795       O800   2.084       .  S
Zn795       O799   1.938       .  S
Zn796       O801   2.054       .  S
Zn796       O803   2.020       .  S
Zn796       O807   1.986       .  S
Zn796       O799   1.988       .  S
Zn797       O802   2.083       .  S
Zn797       O808   2.002       .  S
Zn798       O806   2.163       .  S
Zn798       O810   2.177       .  S
O800        C812   1.278       .  A
O801        C813   1.263       .  A
O802        C814   1.272       .  A
O803        C812   1.279       .  A
O804        C814   1.276       .  A
O805        C813   1.276       .  A
O806        C815   1.300       .  A
O807        C816   1.264       .  A
O808        C815   1.271       .  A
O809        C816   1.284       .  A
O810        C817   1.294       .  A
O811        C817   1.264       .  A
Zn818       O823   2.088       .  S
Zn818       O827   1.996       .  S
Zn818       O834   1.960       .  S
Zn818       O822   1.965       .  S
Zn819       O824   2.077       .  S
Zn819       O830   2.040       .  S
Zn820       O825   2.059       .  S
Zn820       O822   1.964       .  S
Zn821       O829   2.148       .  S
Zn821       O832   2.160       .  S
O823        C835   1.276       .  A
O824        C836   1.268       .  A
O825        C837   1.277       .  A
O826        C835   1.281       .  A
O827        C837   1.277       .  A
O828        C836   1.276       .  A
O829        C838   1.296       .  A
O830        C839   1.273       .  A
O831        C838   1.267       .  A
O832        C839   1.288       .  A
O833        C840   1.291       .  A
O834        C840   1.261       .  A
C841        C842   1.405       .  A
C842       C1139   1.367       .  A
C842       H1143   1.082       .  S
C843       C1138   1.367       .  A
C843        C850   1.450       .  S
C844       C1141   1.402   1_545  A
C845       C1140   1.402       .  A
C845        C846   1.378       .  A
C845        H848   1.080       .  S
C846        C849   1.440       .  S
H847       C1138   1.083       .  S
C849        N851   1.156       .  T
C850        N852   1.157       .  T
C854        C855   1.379       .  A
C854        H859   1.080       .  S
C855        C862   1.451       .  S
C857        C858   1.364       .  A
C857        H860   1.081       .  S
C858        C861   1.438       .  S
C861        N863   1.156       .  T
C862        N864   1.158       .  T
C865       C1166   1.413       .  A
C866       C1163   1.376   1_545  A
C866        H871   1.083       .  S
C867       C1162   1.376       .  A
C867        C868   1.422       .  A
C867        C874   1.443       .  S
C869        C870   1.363       .  A
C869        H872   1.082       .  S
C870       C1161   1.413       .  A
C870       C1169   1.450       .  S
C873       C1166   1.450       .  S
C873        N875   1.157       .  T
C874        N876   1.158       .  T
C877        C878   1.396       .  A
C877        C882   1.412       .  A
C878        C879   1.373       .  A
C878        H883   1.085       .  S
C879        C880   1.424       .  A
C879        C886   1.439       .  S
C880        C881   1.426       .  A
C881        C882   1.380       .  A
C881        H884   1.081       .  S
C882        C885   1.449       .  S
C885        N887   1.157       .  T
C886        N888   1.156       .  T
C889        C941   1.525       .  S
C889        C960   1.561       .  S
C889        C985   1.538       .  S
C889       C1025   1.533       .  S
C890        C919   1.542       .  S
C890        C938   1.555       .  S
C890        C988   1.543       .  S
C890       C1013   1.524       .  S
C891        C918   1.551       .  S
C891        C964   1.562       .  S
C891        C986   1.550       .  S
C891       C1001   1.533       .  S
C892        C939   1.579       .  S
C892        C963   1.560       .  S
C892        C987   1.568       .  S
C892       C1028   1.551       .  S
C893        C917   1.560       .  S
C893        C937   1.577       .  S
C893        C965   1.558       .  S
C893        C989   1.544       .  S
C894        C916   1.558       .  S
C894        C962   1.541       .  S
C894        C983   1.559       .  S
C894       C1004   1.544       .  S
C895        C914   1.542       .  S
C895        C940   1.532       .  S
C895        C961   1.561       .  S
C895        C992   1.534       .  S
C896        C915   1.574       .  S
C896        C942   1.543       .  S
C896        C984   1.548       .  S
C896       C1016   1.540       .  S
Zn897       O906   1.970   1_455  S
Zn897       O913   1.977   1_455  S
Zn898      O1051   2.093       .  S
Zn898       O905   1.995       .  S
Zn898       O909   1.967       .  S
Zn899       O907   2.031   1_645  S
Zn899       O910   2.038   1_545  S
Zn899      O1049   1.982   1_544  S
Zn900       O908   2.083       .  S
Zn900       O911   2.144       .  S
Zn900       O912   2.144       .  S
Zn900       O901   1.914       .  S
O901      Zn1047   1.982   1_565  S
O902        C914   1.272       .  A
O903      Zn1046   2.093       .  S
O903        C915   1.274       .  A
O904        C916   1.269       .  A
O906       C1064   1.280       .  A
O908       C1065   1.282       .  A
O909        C918   1.262       .  A
O910        C917   1.272       .  A
O913        C919   1.265       .  A
C916       O1054   1.280       .  A
C917       O1056   1.282   1_554  A
Zn920       O925   2.077       .  S
Zn920       O936   1.950       .  S
Zn920       O924   1.939       .  S
Zn921       O926   2.006       .  S
Zn921       O928   2.113       .  S
Zn921       O932   1.953       .  S
Zn921       O924   1.955       .  S
Zn922       O927   2.043       .  S
Zn922       O930   2.101       .  S
Zn922       O933   1.966       .  S
Zn923       O931   2.113       .  S
Zn923       O934   2.104       .  S
Zn923       O935   2.136       .  S
Zn923       O924   1.964       .  S
O925        C937   1.282       .  A
O927        C939   1.280       .  A
O928        C937   1.286       .  A
O929        C939   1.285       .  A
O930        C938   1.281       .  A
O932        C941   1.264       .  A
O933        C940   1.270       .  A
O934        C941   1.286       .  A
O935        C942   1.281       .  A
O936        C942   1.263       .  A
Zn943       O948   2.084       .  S
Zn943      O1100   1.975       .  S
Zn943      O1107   1.994       .  S
Zn943       O947   1.938       .  S
Zn944       O949   2.054       .  S
Zn944       O951   2.020       .  S
Zn944       O955   1.986       .  S
Zn944       O947   1.988       .  S
Zn945       O950   2.083       .  S
Zn945      O1101   1.987   1_554  S
Zn945       O956   2.002       .  S
Zn945      O1095   1.978   1_554  S
Zn946       O954   2.163       .  S
Zn946      O1105   2.120   1_554  S
Zn946       O958   2.177       .  S
Zn946      O1095   1.935   1_554  S
O947      Zn1093   1.978       .  S
O947      Zn1094   1.935       .  S
O948        C960   1.278       .  A
O949        C961   1.263       .  A
O950        C962   1.272       .  A
O951        C960   1.279       .  A
O952      Zn1091   1.975   1_554  S
O952        C962   1.276       .  A
O953      Zn1093   1.987       .  S
O953        C961   1.276       .  A
O954        C963   1.300       .  A
O955        C964   1.264       .  A
O956        C963   1.271       .  A
O957      Zn1094   2.120       .  S
O957        C964   1.284       .  A
O958        C965   1.294       .  A
O959      Zn1091   1.994   1_554  S
O959        C965   1.264       .  A
Zn966       O971   2.088       .  S
Zn966       O975   1.996       .  S
Zn966       O982   1.960       .  S
Zn966       O970   1.965       .  S
Zn967       O972   2.077       .  S
Zn967       O978   2.040       .  S
Zn968       O973   2.059       .  S
Zn968       O970   1.964       .  S
Zn969       O977   2.148       .  S
Zn969       O980   2.160       .  S
O971        C983   1.276       .  A
O972        C984   1.268       .  A
O973        C985   1.277       .  A
O974        C983   1.281       .  A
O975        C985   1.277       .  A
O976        C984   1.276       .  A
O977        C986   1.296       .  A
O978        C987   1.273       .  A
O979        C986   1.267       .  A
O980        C987   1.288       .  A
O981        C988   1.291       .  A
O982        C988   1.261       .  A
C989        C990   1.405   1_565  A
C989       C1142   1.434   1_554  A
C991       C1140   1.417   1_554  A
C991        C998   1.450       .  S
C992       C1139   1.417       .  A
C993        C994   1.378       .  A
C993        H996   1.080       .  S
C994       C1137   1.434       .  A
C994        C997   1.440       .  S
C997        N999   1.156       .  T
C998       N1000   1.157       .  T
C1001      C1154   1.420       .  A
C1002      C1003   1.379       .  A
C1002      H1007   1.080       .  S
C1003      C1152   1.421       .  A
C1003      C1010   1.451       .  S
C1004      C1151   1.421   1_554  A
C1005      C1006   1.364       .  A
C1005      H1008   1.081       .  S
C1006      C1149   1.420   1_554  A
C1006      C1009   1.438       .  S
C1009      N1011   1.156       .  T
C1010      N1012   1.158       .  T
C1014      H1019   1.083       .  S
C1015      C1016   1.422       .  A
C1015      C1022   1.443       .  S
C1017      C1018   1.363   1_565  A
C1017      H1020   1.082       .  S
C1021      N1023   1.157       .  T
C1022      N1024   1.158       .  T
C1025      C1026   1.396       .  A
C1025      C1030   1.412       .  A
C1026      C1027   1.373       .  A
C1026      H1031   1.085       .  S
C1027      C1028   1.424       .  A
C1027      C1034   1.439       .  S
C1028      C1029   1.426       .  A
C1029      C1030   1.380       .  A
C1029      H1032   1.081       .  S
C1030      C1033   1.449       .  S
C1033      N1035   1.157       .  T
C1034      N1036   1.156       .  T
C1037      C1089   1.525       .  S
C1037      C1108   1.561       .  S
C1037      C1133   1.538       .  S
C1037      C1173   1.533       .  S
C1038      C1067   1.542       .  S
C1038      C1086   1.555       .  S
C1038      C1136   1.543       .  S
C1038      C1161   1.524       .  S
C1039      C1066   1.551       .  S
C1039      C1112   1.562       .  S
C1039      C1134   1.550       .  S
C1039      C1149   1.533       .  S
C1040      C1087   1.579       .  S
C1040      C1111   1.560       .  S
C1040      C1135   1.568       .  S
C1040      C1176   1.551       .  S
C1041      C1065   1.560       .  S
C1041      C1085   1.577       .  S
C1041      C1113   1.558       .  S
C1041      C1137   1.544       .  S
C1042      C1064   1.558       .  S
C1042      C1110   1.541       .  S
C1042      C1131   1.559       .  S
C1042      C1152   1.544       .  S
C1043      C1062   1.542       .  S
C1043      C1088   1.532       .  S
C1043      C1109   1.561       .  S
C1043      C1140   1.534       .  S
C1044      C1063   1.574       .  S
C1044      C1090   1.543       .  S
C1044      C1132   1.548       .  S
C1044      C1164   1.540       .  S
Zn1045     O1054   1.970   1_456  S
Zn1045     O1061   1.977   1_455  S
Zn1046     O1053   1.995   1_554  S
Zn1046     O1057   1.967   1_554  S
Zn1047     O1055   2.031   1_645  S
Zn1047     O1058   2.038   1_545  S
Zn1048     O1056   2.083       .  S
Zn1048     O1059   2.144       .  S
Zn1048     O1060   2.144       .  S
Zn1048     O1049   1.914       .  S
O1050      C1062   1.272       .  A
O1051      C1063   1.274       .  A
O1052      C1064   1.269       .  A
O1057      C1066   1.262       .  A
O1058      C1065   1.272       .  A
O1061      C1067   1.265       .  A
Zn1068     O1073   2.077       .  S
Zn1068     O1084   1.950       .  S
Zn1068     O1072   1.939       .  S
Zn1069     O1074   2.006       .  S
Zn1069     O1076   2.113       .  S
Zn1069     O1080   1.953       .  S
Zn1069     O1072   1.955       .  S
Zn1070     O1075   2.043       .  S
Zn1070     O1078   2.101       .  S
Zn1070     O1081   1.966       .  S
Zn1071     O1079   2.113       .  S
Zn1071     O1082   2.104       .  S
Zn1071     O1083   2.136       .  S
Zn1071     O1072   1.964       .  S
O1073      C1085   1.282       .  A
O1075      C1087   1.280       .  A
O1076      C1085   1.286       .  A
O1077      C1087   1.285       .  A
O1078      C1086   1.281       .  A
O1080      C1089   1.264       .  A
O1081      C1088   1.270       .  A
O1082      C1089   1.286       .  A
O1083      C1090   1.281       .  A
O1084      C1090   1.263       .  A
Zn1091     O1096   2.084       .  S
Zn1091     O1095   1.938       .  S
Zn1092     O1097   2.054       .  S
Zn1092     O1099   2.020       .  S
Zn1092     O1103   1.986       .  S
Zn1092     O1095   1.988       .  S
Zn1093     O1098   2.083       .  S
Zn1093     O1104   2.002       .  S
Zn1094     O1102   2.163       .  S
Zn1094     O1106   2.177       .  S
O1096      C1108   1.278       .  A
O1097      C1109   1.263       .  A
O1098      C1110   1.272       .  A
O1099      C1108   1.279       .  A
O1100      C1110   1.276       .  A
O1101      C1109   1.276       .  A
O1102      C1111   1.300       .  A
O1103      C1112   1.264       .  A
O1104      C1111   1.271       .  A
O1105      C1112   1.284       .  A
O1106      C1113   1.294       .  A
O1107      C1113   1.264       .  A
Zn1114     O1119   2.088       .  S
Zn1114     O1123   1.996       .  S
Zn1114     O1130   1.960       .  S
Zn1114     O1118   1.965       .  S
Zn1115     O1120   2.077       .  S
Zn1115     O1126   2.040       .  S
Zn1116     O1121   2.059       .  S
Zn1116     O1118   1.964       .  S
Zn1117     O1125   2.148       .  S
Zn1117     O1128   2.160       .  S
O1119      C1131   1.276       .  A
O1120      C1132   1.268       .  A
O1121      C1133   1.277       .  A
O1122      C1131   1.281       .  A
O1123      C1133   1.277       .  A
O1124      C1132   1.276       .  A
O1125      C1134   1.296       .  A
O1126      C1135   1.273       .  A
O1127      C1134   1.267       .  A
O1128      C1135   1.288       .  A
O1129      C1136   1.291       .  A
O1130      C1136   1.261       .  A
C1137      C1138   1.405   1_565  A
C1139      C1146   1.450       .  S
C1141      C1142   1.378       .  A
C1141      H1144   1.080       .  S
C1142      C1145   1.440       .  S
C1145      N1147   1.156       .  T
C1146      N1148   1.157       .  T
C1150      C1151   1.379       .  A
C1150      H1155   1.080       .  S
C1151      C1158   1.451       .  S
C1153      C1154   1.364       .  A
C1153      H1156   1.081       .  S
C1154      C1157   1.438       .  S
C1157      N1159   1.156       .  T
C1158      N1160   1.158       .  T
C1162      H1167   1.083       .  S
C1163      C1164   1.422       .  A
C1163      C1170   1.443       .  S
C1165      C1166   1.363   1_565  A
C1165      H1168   1.082       .  S
C1169      N1171   1.157       .  T
C1170      N1172   1.158       .  T
C1173      C1174   1.396       .  A
C1173      C1178   1.412       .  A
C1174      C1175   1.373       .  A
C1174      H1179   1.085       .  S
C1175      C1176   1.424       .  A
C1175      C1182   1.439       .  S
C1176      C1177   1.426       .  A
C1177      C1178   1.380       .  A
C1177      H1180   1.081       .  S
C1178      C1181   1.449       .  S
C1181      N1183   1.157       .  T
C1182      N1184   1.156       .  T
