geometry optimzed in LAMMPS
_audit_creation_date              2020-11-30 
_audit_creation_method            'lammps2cif' 
_symmetry_space_group_name_H-M    'P1' 
_symmetry_Int_Tables_number       1 
_symmetry_cell_setting            triclinic 
loop_ 
_symmetry_equiv_pos_as_xyz 
  x,y,z 
_cell_length_a                    39.26343844066176 
_cell_length_b                    25.12379248080668 
_cell_length_c                    25.320381455061934 
_cell_angle_alpha                 90.35931988929526 
_cell_angle_beta                  90.55776234022666 
_cell_angle_gamma                 89.90382862478764 
loop_ 
_atom_site_label 
_atom_site_type_symbol 
_atom_site_fract_x 
_atom_site_fract_y 
_atom_site_fract_z 
_atom_site_charge 
C1          C  0.76929184  0.24894131  0.13616513    -0.03280
C2          C  0.76230144  0.24792546  0.38627457    -0.03280
Fe3        Fe  0.75807577  0.37149942  0.25971850     1.65780
Fe4        Fe  0.82295018  0.45147183  0.24956972     1.73250
Fe5        Fe  0.83900052  0.31775418  0.27007651     1.54410
O6          O  0.81118742  0.28065107  0.33217738    -0.82470
O7          O  0.85364086  0.41961531  0.19033678    -0.80770
O8          O  0.76033825  0.31635792  0.32063891    -0.84980
O9          O  0.76434266  0.31912544  0.19764545    -0.79830
O10         O  0.86978306  0.35832045  0.32766816    -0.81610
O11         O  0.79088787  0.47705964  0.18881140    -0.84350
C12         C  0.78582200  0.28571372  0.17932159     0.96420
C13         C  0.78035674  0.28588371  0.34650349     1.03850
O14         O  0.80692257  0.38005911  0.26100781    -1.13330
O15         O  0.79319825  0.48258694  0.31561398    -0.75770
O16         O  0.75068217  0.42467115  0.32221411    -0.79250
O17         O  0.81376322  0.27567868  0.20491588    -0.79940
C18         C  0.76691118  0.46471403  0.34069831     0.95320
O19         O  0.74629292  0.42609520  0.19833429    -0.77900
O20         O  0.86045917  0.43920742  0.29882056    -0.83090
C21         C  0.87943917  0.38997849  0.19940959     0.97940
C22         C  0.87829896  0.40757075  0.32417236     1.03860
O23         O  0.87517812  0.34426878  0.21843654    -0.78740
C24         C  0.76172611  0.46271785  0.17334945     1.02160
Fe25       Fe  0.75814331  0.12523869  0.01097552     1.65780
Fe26       Fe  0.82274445  0.04407964  0.51749039     1.73250
Fe27       Fe  0.83900857  0.17894657  0.50885093     1.54420
O28         O  0.81020131  0.21965794  0.44762598    -0.82470
O29         O  0.84830633  0.07255570  0.08358507    -0.80770
O30         O  0.76088176  0.17695271  0.44781651    -0.84980
O31         O  0.76386860  0.18086372  0.07117152    -0.79830
O32         O  0.86951852  0.14419826  0.45107575    -0.81610
O33         O  0.78770405  0.01385719  0.07102855    -0.84350
C34         C  0.78552503  0.21155652  0.09402588     0.96420
C35         C  0.78074936  0.21057856  0.42687037     1.03850
O36         O  0.80679758  0.11639098  0.51059400    -1.13330
O37         O  0.79610179  0.01730859  0.44648356    -0.75770
O38         O  0.74980327  0.06839122  0.45041512    -0.79250
O39         O  0.81509721  0.21820309  0.07435671    -0.79940
C40         C  0.76716669  0.03229085  0.42672266     0.95320
O41         O  0.74807368  0.07489940  0.07537240    -0.77900
O42         O  0.86390143  0.06092402  0.47498627    -0.83090
C43         C  0.87592736  0.09777981  0.07874644     0.97940
C44         C  0.88170590  0.09741731  0.45642353     1.03860
O45         O  0.87446578  0.14495134  0.06115087    -0.78740
C46         C  0.76183300  0.03302901  0.09382752     1.02160
C47         C  0.01123131  0.01906092  0.38263157    -0.03280
Fe48       Fe  0.25483102  0.37121955  0.98596099     1.65780
Fe49       Fe  0.18642326  0.44417242  0.98052600     1.73250
Fe50       Fe  0.17736001  0.30734820  0.97934949     1.54420
O51         O  0.20555959  0.27848527  0.41187464    -0.82470
O52         O  0.14960968  0.41303712  0.02538733    -0.80770
O53         O  0.25676725  0.31228227  0.42911985    -0.84980
O54         O  0.25200824  0.32227550  0.05178420    -0.79830
O55         O  0.13943547  0.34272351  0.42949620    -0.81610
O56         O  0.21089676  0.47227356  0.05222092    -0.84350
C57         C  0.23363709  0.28370212  0.06731951     0.96420
C58         C  0.23719889  0.28359968  0.40041945     1.03850
O59         O  0.20603599  0.37383614  0.48290415    -1.13330
O60         O  0.21979960  0.48101794  0.42816130    -0.75770
O61         O  0.26021052  0.42088092  0.41936561    -0.79250
O62         O  0.20822794  0.26784822  0.03861672    -0.79940
C63         C  0.24472551  0.46222106  0.40223994     0.95320
O64         O  0.25987508  0.42997995  0.04418432    -0.77900
O65         O  0.16208736  0.42086409  0.41204088    -0.83090
C66         C  0.13399745  0.37544496  0.04656674     0.97940
C67         C  0.13665989  0.39029742  0.41203851     1.03860
O68         O  0.14450520  0.32806936  0.04107840    -0.78740
C69         C  0.24099880  0.46236979  0.06962851     1.02160
Fe70       Fe  0.25441508  0.12433230  0.23627200     1.65780
Fe71       Fe  0.18510541  0.05196111  0.24134497     1.73250
Fe72       Fe  0.17783750  0.18981465  0.23681655     1.54410
O73         O  0.21129873  0.22861337  0.29249081    -0.82470
O74         O  0.15522962  0.07540520  0.18070253    -0.80770
O75         O  0.25519232  0.17368950  0.30170761    -0.84980
O76         O  0.25383681  0.18274252  0.17832849    -0.79830
O77         O  0.14762334  0.17014634  0.29976321    -0.81610
O78         O  0.21579984  0.01690809  0.17992382    -0.84350
C79         C  0.23354343  0.21211572  0.15148257     0.96420
C80         C  0.23759322  0.21248537  0.31871145     1.03850
O81         O  0.20544212  0.12224179  0.23891599    -1.13330
O82         O  0.21324361  0.02245723  0.30667336    -0.75770
O83         O  0.26126905  0.06592606  0.29448915    -0.79250
O84         O  0.20258735  0.21793952  0.16615255    -0.79940
C85         C  0.24362103  0.03281846  0.32094467     0.95320
O86         O  0.25754089  0.07443323  0.16992234    -0.77900
O87         O  0.15146756  0.08170443  0.29733039    -0.83090
C88         C  0.13085339  0.10674667  0.18812132     0.97940
C89         C  0.13662125  0.12423749  0.31104494     1.03860
O90         O  0.13704137  0.15626170  0.19385571    -0.78740
C91         C  0.24112213  0.03408125  0.15299579     1.02160
C92         C  0.25661495  0.24802576  0.35969662    -0.03280
C93         C  0.25175390  0.24769849  0.10932400    -0.03280
C94         C  0.00731529  0.98615040  0.12922540    -0.03280
Fe95       Fe  0.26133716  0.37415915  0.23618005     1.65780
Fe96       Fe  0.33131383  0.30220658  0.23414660     1.73250
Fe97       Fe  0.33707933  0.43918021  0.23391261     1.54410
O98         O  0.31121391  0.46683332  0.16390845    -0.82470
O99         O  0.36879752  0.33137607  0.28602392    -0.80770
O100        O  0.25995397  0.43367721  0.18000579    -0.84980
O101        O  0.26355796  0.42244810  0.30336644    -0.79830
O102        O  0.37732530  0.40519418  0.18909592    -0.81610
O103        O  0.30590871  0.27319050  0.30295280    -0.84350
C104        C  0.28118192  0.46219014  0.31884102     0.96420
C105        C  0.27951615  0.46242644  0.15205773     1.03850
O106        O  0.31007464  0.37188362  0.23533939    -1.13330
O107        O  0.29784361  0.26643103  0.17649585    -0.75770
O108        O  0.25578662  0.32429257  0.16899922    -0.79250
O109        O  0.30515703  0.47949557  0.28933950    -0.79940
C110        C  0.27163050  0.28363621  0.15106331     0.95320
O111        O  0.25680211  0.31538257  0.29310115    -0.77900
O112        O  0.35642923  0.32692792  0.16841828    -0.83090
C113        C  0.37811173  0.37431403  0.30925788     0.97940
C114        C  0.38134727  0.35813028  0.17075499     1.03860
O115        O  0.36449581  0.41890399  0.29997284    -0.78740
C116        C  0.27569061  0.28310882  0.31883061     1.02160
Fe117      Fe  0.26136757  0.12151004  0.48501054     1.65780
Fe118      Fe  0.33018517  0.19365593  0.98728772     1.73250
Fe119      Fe  0.33733367  0.05740042  0.99159875     1.54420
O120        O  0.31071937  0.03056246  0.06015676    -0.82470
O121        O  0.37197694  0.16350945  0.44459457    -0.80770
O122        O  0.25921159  0.06075798  0.04012503    -0.84980
O123        O  0.26400076  0.07408815  0.41746960    -0.79830
O124        O  0.37464073  0.09452337  0.04007249    -0.81610
O125        O  0.30724169  0.21895549  0.41437399    -0.84350
C126        C  0.28159842  0.03372920  0.40354373     0.96420
C127        C  0.27896349  0.03384882  0.07024166     1.03850
O128        O  0.30988528  0.12376884  0.98598418    -1.13330
O129        O  0.29423698  0.23160619  0.03806837    -0.75770
O130        O  0.25701934  0.16864845  0.05389499    -0.79250
O131        O  0.30588737  0.01681113  0.43386880    -0.79940
C132        C  0.27111523  0.21217382  0.06784930     0.95320
O133        O  0.25680038  0.18280039  0.42936481    -0.77900
O134        O  0.35006188  0.17087516  0.05729469    -0.83090
C135        C  0.38367471  0.12013280  0.42502994     0.97940
C136        C  0.37576208  0.14171405  0.05915613     1.03860
O137        O  0.36816183  0.07629404  0.42930523    -0.78740
C138        C  0.27592514  0.21245324  0.40124806     1.02160
C139        C  0.26353772  0.99761746  0.36150451    -0.03280
C140        C  0.26026158  0.99825677  0.11139310    -0.03280
C141        C  0.49479828  0.25252880  0.36899444    -0.03280
C142        C  0.74707347  0.99855348  0.38354627    -0.03280
Fe143      Fe  0.75196747  0.12179552  0.25871956     1.65780
Fe144      Fe  0.68821723  0.20525091  0.25314209     1.73250
Fe145      Fe  0.67049857  0.06992997  0.26097056     1.54410
O146        O  0.69756190  0.02578597  0.20085874    -0.82470
O147        O  0.65315189  0.18926880  0.30857609    -0.80770
O148        O  0.74658589  0.06914662  0.19555104    -0.84980
O149        O  0.74870965  0.06638752  0.31833890    -0.79830
O150        O  0.63929834  0.09964212  0.20246369    -0.81610
O151        O  0.71663533  0.23260210  0.31978019    -0.84350
C152        C  0.72825482  0.03665547  0.34332406     0.96420
C153        C  0.72535779  0.03551376  0.17634022     1.03850
O154        O  0.70331780  0.13207328  0.25854049    -1.13330
O155        O  0.72078545  0.23226653  0.19408294    -0.75770
O156        O  0.76322629  0.17554147  0.19784287    -0.79250
O157        O  0.69685891  0.03326268  0.32823714    -0.79940
C158        C  0.74846610  0.21464285  0.17549249     0.95320
O159        O  0.75961764  0.17514522  0.32257732    -0.77900
O160        O  0.66102981  0.17876398  0.18878742    -0.83090
C161        C  0.62755604  0.16002165  0.30565478     0.97940
C162        C  0.63626532  0.14722605  0.18675717     1.03860
O163        O  0.63299108  0.10967118  0.30750697    -0.78740
C164        C  0.74318274  0.21407663  0.34320818     1.02160
C165        C  0.74134169  0.99815466  0.13343345    -0.03280
Fe166      Fe  0.75181801  0.37494543  0.51037901     1.65780
Fe167      Fe  0.68776550  0.29255127  0.01914400     1.73250
Fe168      Fe  0.67060991  0.42626056  0.00244475     1.54420
O169        O  0.69627995  0.47009849  0.06588758    -0.82470
O170        O  0.64515611  0.30367842  0.47635528    -0.80770
O171        O  0.74608686  0.42848409  0.07121643    -0.84980
O172        O  0.74922545  0.42944671  0.44859051    -0.79830
O173        O  0.63819150  0.39610168  0.05811755    -0.81610
O174        O  0.71432815  0.26454312  0.44955678    -0.84350
C175        C  0.72883793  0.46012848  0.42356153     0.96420
C176        C  0.72466048  0.46127907  0.09038012     1.03850
O177        O  0.70315652  0.36478684  0.00834091    -1.13330
O178        O  0.72248497  0.26501101  0.07440122    -0.75770
O179        O  0.76331064  0.32367679  0.07441485    -0.79250
O180        O  0.69775566  0.46436621  0.43841744    -0.79940
C181        C  0.74909121  0.28371520  0.09551597     0.95320
O182        O  0.75910943  0.31937062  0.44966262    -0.77900
O183        O  0.66352388  0.32307353  0.08441331    -0.83090
C184        C  0.62664017  0.33695244  0.45348028     0.97940
C185        C  0.63677475  0.35045476  0.07889108     1.03860
O186        O  0.63716776  0.38525615  0.44790557    -0.78740
C187        C  0.74212364  0.28137613  0.42816839     1.02160
C188        C  0.50745963  0.24802997  0.11964240    -0.03280
C189        C  0.59845074  0.27156876  0.07056678    -0.02640
C190        C  0.60263260  0.32524440  0.08383577     0.07040
C191        C  0.57339830  0.35675256  0.08797243    -0.02760
C192        C  0.54038797  0.33492165  0.07963800    -0.02760
C193        C  0.53403183  0.27783539  0.07771098     0.07170
C194        C  0.56537186  0.25076729  0.06206416    -0.02950
Br195      Br  0.56875429  0.18410727  0.02906316    -0.01500
Br196      Br  0.63836134  0.22358455  0.06637862    -0.01570
Br197      Br  0.51290536  0.38832213  0.04557247    -0.01530
Br198      Br  0.57854623  0.43088470  0.10868775    -0.01520
C199        C  0.57744629  0.13593162  0.14772417    -0.02640
C200        C  0.60237606  0.16847231  0.17087308     0.07000
C201        C  0.59438564  0.22153832  0.18295909    -0.02760
C202        C  0.56066420  0.23974754  0.17911285    -0.02760
C203        C  0.53464267  0.21124289  0.15062704     0.07170
C204        C  0.54476332  0.15661207  0.13399252    -0.02950
Br205      Br  0.52193289  0.10706181  0.08187291    -0.01500
Br206      Br  0.59171462  0.06571974  0.12366387    -0.01570
Br207      Br  0.55640686  0.31203263  0.19892524    -0.01530
Br208      Br  0.63066484  0.27422507  0.19582561    -0.01520
C209        C  0.55518240  0.26730096  0.31619671    -0.02640
C210        C  0.52386451  0.23530969  0.32336969     0.07040
C211        C  0.52910736  0.17965081  0.30472434    -0.02760
C212        C  0.56221061  0.15845172  0.29223946    -0.02760
C213        C  0.59216155  0.18690460  0.30457102     0.07170
C214        C  0.58820861  0.24291346  0.31197273    -0.02950
Br215      Br  0.62856894  0.28891634  0.32261712    -0.01500
Br216      Br  0.55961113  0.34508682  0.32419028    -0.01570
Br217      Br  0.56698172  0.08554542  0.26600875    -0.01530
Br218      Br  0.49725230  0.12028317  0.30984733    -0.01520
C219        C  0.52810567  0.32756953  0.42978001    -0.02640
C220        C  0.52257681  0.27161929  0.41425046     0.07040
C221        C  0.55232142  0.23786345  0.42375260    -0.02760
C222        C  0.58546903  0.25984414  0.43313538    -0.02760
C223        C  0.59091044  0.31568470  0.43995655     0.07170
C224        C  0.56160498  0.34804758  0.44258878    -0.02950
Br225      Br  0.56880857  0.42434177  0.45253406    -0.01500
Br226      Br  0.49473764  0.38501950  0.42414526    -0.01570
Br227      Br  0.62434590  0.21047072  0.43033131    -0.01530
Br228      Br  0.55216678  0.15968889  0.41242217    -0.01520
C229        C  0.44640306  0.12610774  0.43125865    -0.02640
C230        C  0.41757029  0.12187078  0.39915595     0.07040
C231        C  0.41888447  0.14488241  0.35034683    -0.02760
C232        C  0.43963704  0.19006131  0.34362616    -0.02760
C233        C  0.46935941  0.20185668  0.37817932     0.07170
C234        C  0.47073603  0.16699129  0.42293705    -0.02950
Br235      Br  0.49187492  0.18781415  0.48554337    -0.01500
Br236      Br  0.45036332  0.07626877  0.98854429    -0.01570
Br237      Br  0.41034797  0.23995751  0.30908041    -0.01530
Br238      Br  0.38598550  0.11999995  0.29816442    -0.01520
C239        C  0.46259901  0.16054833  0.12485471    -0.02640
C240        C  0.47550621  0.21055784  0.09992745     0.07040
C241        C  0.44950609  0.23750017  0.07018256    -0.02760
C242        C  0.41578686  0.21909729  0.06625905    -0.02760
C243        C  0.40814109  0.16596959  0.07810255     0.07170
C244        C  0.43118873  0.13721976  0.10837336    -0.02950
Br245      Br  0.41486784  0.06948015  0.13581947    -0.01500
Br246      Br  0.48172532  0.11550399  0.18208215    -0.01570
Br247      Br  0.37952538  0.27124394  0.55446571    -0.01530
Br248      Br  0.45799456  0.30253745  0.03506214    -0.01520
C249        C  0.47737307  0.34777029  0.14303394    -0.02640
C250        C  0.48520876  0.29201394  0.15463846     0.07040
C251        C  0.45876701  0.26973245  0.18427434    -0.02760
C252        C  0.42445807  0.28493770  0.17949026    -0.02760
C253        C  0.41619145  0.33577622  0.16035867     0.07170
C254        C  0.44304086  0.36681582  0.14148357    -0.02950
Br255      Br  0.43263803  0.43411278  0.10880690    -0.01500
Br256      Br  0.50533386  0.40769441  0.16694569    -0.01570
Br257      Br  0.39001097  0.23045776  0.18875906    -0.01530
Br258      Br  0.47122888  0.22134769  0.23436868    -0.01520
C259        C  0.43607423  0.30570196  0.39804312    -0.02640
C260        C  0.46572472  0.29956655  0.36263257     0.07040
C261        C  0.46499277  0.33906783  0.32229175    -0.02760
C262        C  0.43925352  0.37778564  0.31612488    -0.02760
C263        C  0.40918549  0.37230928  0.34248149     0.07170
C264        C  0.40939396  0.34311786  0.38823670    -0.02950
Br265      Br  0.36957753  0.35266255  0.43221872    -0.01500
Br266      Br  0.41788378  0.25294334  0.44279041    -0.01570
Br267      Br  0.44242354  0.43795986  0.26867893    -0.01530
Br268      Br  0.49309911  0.33955612  0.26776907    -0.01520
C269        C  0.08994549  0.03219391  0.20939280    -0.02640
C270        C  0.09548800  0.08423683  0.19031664     0.07040
C271        C  0.06780521  0.11143733  0.16802513    -0.02760
C272        C  0.03575515  0.08589859  0.16081715    -0.02760
C273        C  0.03220409  0.02686246  0.16425820     0.07170
C274        C  0.06132800  0.00239504  0.19246880    -0.02950
Br275      Br  0.07384118  0.42534560  0.19307551    -0.01500
Br276      Br  0.12422585  0.99511507  0.25174071    -0.01570
Br277      Br  0.00293327  0.14469043  0.16709162    -0.01530
Br278      Br  0.07615988  0.17930649  0.13275248    -0.01520
C279        C  0.10212756  0.44517251  0.08949440    -0.02640
C280        C  0.10194913  0.39263653  0.07329704     0.07040
C281        C  0.07021920  0.36821009  0.06601991    -0.02760
C282        C  0.03879820  0.39557883  0.07896286    -0.02760
C283        C  0.03766541  0.45201512  0.09576867     0.07170
C284        C  0.07227973  0.47570789  0.08958521    -0.02950
Br285      Br  0.08590382  0.54903978  0.07664554    -0.01500
Br286      Br  0.14450226  0.47350490  0.11912943    -0.01570
Br287      Br  0.00131817  0.35025141  0.06282097    -0.01530
Br288      Br  0.07114910  0.29587388  0.53828414    -0.01520
C289        C  0.06979457  0.07850688  0.40526456    -0.02640
C290        C  0.04159950  0.06299953  0.36913228     0.07040
C291        C  0.04588115  0.08660166  0.32008761    -0.02760
C292        C  0.07330938  0.12072500  0.30805431    -0.02760
C293        C  0.10351638  0.11701111  0.33706006     0.07170
C294        C  0.10225340  0.09409605  0.38607779    -0.02950
Br295      Br  0.14177480  0.11162242  0.43045048    -0.01500
Br296      Br  0.06396580  0.12378331  0.46501476    -0.01570
Br297      Br  0.06541986  0.18555096  0.27025495    -0.01530
Br298      Br  0.01320608  0.07611495  0.27234394    -0.01520
C299        C  0.05690984  0.46961482  0.43894625    -0.02640
C300        C  0.03897840  0.47353708  0.39209707     0.07040
C301        C  0.05452767  0.44538627  0.34915659    -0.02760
C302        C  0.08329393  0.41094198  0.35673285    -0.02760
C303        C  0.10241904  0.41530890  0.40341144     0.07170
C304        C  0.09049628  0.45130263  0.44119896    -0.02950
Br305      Br  0.12247313  0.49756779  0.97438795    -0.01500
Br306      Br  0.03913574  0.50500303  0.49357584    -0.01570
Br307      Br  0.09708886  0.35903143  0.30514656    -0.01530
Br308      Br  0.03079051  0.44368630  0.28508431    -0.01520
C309        C  0.94344349  0.98568004  0.08313909    -0.02640
C310        C  0.97666380  0.01211857  0.09055281     0.07040
C311        C  0.97333010  0.06796861  0.07912293    -0.02760
C312        C  0.94150794  0.09618249  0.07898867    -0.02760
C313        C  0.91007344  0.06918471  0.08359647     0.07170
C314        C  0.91153771  0.01312791  0.08361590    -0.02950
Br315      Br  0.86909306  0.97109297  0.08512013    -0.01500
Br316      Br  0.93579934  0.41084404  0.07394630    -0.01570
Br317      Br  0.94218820  0.17377548  0.07786288    -0.01530
Br318      Br  0.00888129  0.10760191  0.04952463    -0.01520
C319        C  0.92905421  0.02867701  0.45608415    -0.02640
C320        C  0.91857453  0.08255491  0.44849479     0.07040
C321        C  0.94435324  0.12071979  0.44063703    -0.02760
C322        C  0.97761728  0.10403539  0.42506498    -0.02760
C323        C  0.98726723  0.04774114  0.42604998     0.07170
C324        C  0.96361157  0.01462627  0.45336319    -0.02950
Br325      Br  0.97401383  0.44234685  0.47135368    -0.01500
Br326      Br  0.89695026  0.96871475  0.46082491    -0.01570
Br327      Br  0.00215977  0.16158396  0.39102157    -0.01530
Br328      Br  0.93306469  0.19626650  0.44227336    -0.01520
C329        C  0.92139680  0.46512987  0.20220779    -0.02640
C330        C  0.91533782  0.41080077  0.19455957     0.07040
C331        C  0.94421457  0.37730562  0.18769618    -0.02760
C332        C  0.97756535  0.39903139  0.17927743    -0.02760
C333        C  0.98257346  0.45583029  0.17221087     0.07170
C334        C  0.95433726  0.48621667  0.19417402    -0.02950
Br335      Br  0.95213361  0.06063306  0.19679229    -0.01500
Br336      Br  0.88295562  0.51418948  0.21608436    -0.01570
Br337      Br  0.01308860  0.34708575  0.19033409    -0.01530
Br338      Br  0.93758015  0.30123721  0.17780784    -0.01520
C339        C  0.91514811  0.48874633  0.33942243    -0.02640
C340        C  0.91201316  0.43226149  0.33955631     0.07040
C341        C  0.94198678  0.40288654  0.33989937    -0.02760
C342        C  0.97339446  0.42741421  0.35408093    -0.02760
C343        C  0.97886717  0.48692093  0.35168036     0.07170
C344        C  0.94739176  0.51450321  0.33686840    -0.02950
Br345      Br  0.94229820  0.08969043  0.32100282    -0.01500
Br346      Br  0.87399781  0.53327947  0.34729028    -0.01570
Br347      Br  0.00320696  0.36956777  0.38170805    -0.01530
Br348      Br  0.93982887  0.32748619  0.32081484    -0.01520
C349        C  0.76929094  0.24894045  0.63616487    -0.03280
C350        C  0.76229909  0.24792535  0.88627444    -0.03280
Fe351      Fe  0.75807340  0.37149875  0.75971848     1.65780
Fe352      Fe  0.82294844  0.45146962  0.74956865     1.73250
Fe353      Fe  0.83899789  0.31775243  0.77007716     1.54410
O354        O  0.81118422  0.28064844  0.83217574    -0.82470
O355        O  0.85363807  0.41961176  0.69033434    -0.80770
O356        O  0.76033581  0.31635876  0.82064015    -0.84980
O357        O  0.76434061  0.31912338  0.69764647    -0.79830
O358        O  0.86977860  0.35831709  0.82767143    -0.81610
O359        O  0.79088554  0.47705891  0.68881197    -0.84350
C360        C  0.78582041  0.28571269  0.67932176     0.96420
C361        C  0.78035414  0.28588332  0.84650353     1.03850
O362        O  0.80692016  0.38005762  0.76100769    -1.13330
O363        O  0.79319734  0.48258560  0.81561386    -0.75770
O364        O  0.75067990  0.42467199  0.82221293    -0.79250
O365        O  0.81376199  0.27567838  0.70491508    -0.79940
C366        C  0.76690963  0.46471399  0.84069763     0.95320
O367        O  0.74629081  0.42609357  0.69833337    -0.77900
O368        O  0.86045769  0.43920273  0.79881841    -0.83090
C369        C  0.87943662  0.38997533  0.69940738     0.97940
C370        C  0.87829563  0.40756659  0.82417403     1.03860
O371        O  0.87517648  0.34426787  0.71843983    -0.78740
C372        C  0.76172392  0.46271694  0.67334949     1.02160
Fe373      Fe  0.75814366  0.12523801  0.51097547     1.65780
Fe374      Fe  0.82274430  0.04408153  0.01748793     1.73250
Fe375      Fe  0.83900802  0.17894851  0.00884888     1.54420
O376        O  0.81019971  0.21965913  0.94762469    -0.82470
O377        O  0.84830694  0.07255307  0.58358755    -0.80770
O378        O  0.76088043  0.17695289  0.94781631    -0.84980
O379        O  0.76386852  0.18086270  0.57117161    -0.79830
O380        O  0.86951820  0.14420134  0.95107325    -0.81610
O381        O  0.78770371  0.01385665  0.57103074    -0.84350
C382        C  0.78552473  0.21155553  0.59402635     0.96420
C383        C  0.78074764  0.21057899  0.92686974     1.03850
O384        O  0.80679720  0.11639256  0.01059220    -1.13330
O385        O  0.79610160  0.01731021  0.94648141    -0.75770
O386        O  0.74980246  0.06839124  0.95041547    -0.79250
O387        O  0.81509722  0.21820179  0.57435806    -0.79940
C388        C  0.76716594  0.03229153  0.92672195     0.95320
O389        O  0.74807274  0.07489828  0.57537159    -0.77900
O390        O  0.86390089  0.06092708  0.97498327    -0.83090
C391        C  0.87592788  0.09777743  0.57874824     0.97940
C392        C  0.88170548  0.09742030  0.95642068     1.03860
O393        O  0.87446592  0.14494932  0.56115362    -0.78740
C394        C  0.76183199  0.03302834  0.59382793     1.02160
C395        C  0.01122952  0.01905627  0.88263142    -0.03280
Fe396      Fe  0.25483112  0.37121935  0.48596189     1.65780
Fe397      Fe  0.18642280  0.44417098  0.48052934     1.73250
Fe398      Fe  0.17736089  0.30734643  0.47935116     1.54420
O399        O  0.20555924  0.27848506  0.91187457    -0.82470
O400        O  0.14961058  0.41303406  0.52539344    -0.80770
O401        O  0.25676689  0.31228259  0.92911883    -0.84980
O402        O  0.25200865  0.32227541  0.55178547    -0.79830
O403        O  0.13943598  0.34272531  0.92949130    -0.81610
O404        O  0.21089671  0.47227255  0.55222309    -0.84350
C405        C  0.23363789  0.28370123  0.56732007     0.96420
C406        C  0.23719844  0.28359956  0.90041901     1.03850
O407        O  0.20603582  0.37383722  0.98290234    -1.13330
O408        O  0.21980096  0.48101871  0.92816007    -0.75770
O409        O  0.26021135  0.42088089  0.91936500    -0.79250
O410        O  0.20822956  0.26784625  0.53861631    -0.79940
C411        C  0.24472681  0.46222132  0.90223925     0.95320
O412        O  0.25987519  0.42997984  0.54418487    -0.77900
O413        O  0.16208869  0.42086553  0.91203625    -0.83090
C414        C  0.13399938  0.37544048  0.54657272     0.97940
C415        C  0.13666111  0.39029883  0.91203202     1.03860
O416        O  0.14450739  0.32806536  0.54108197    -0.78740
C417        C  0.24099896  0.46236927  0.56962960     1.02160
Fe418      Fe  0.25441478  0.12433168  0.73627217     1.65780
Fe419      Fe  0.18510553  0.05195876  0.74134630     1.73250
Fe420      Fe  0.17783640  0.18981218  0.73681586     1.54410
O421        O  0.21129703  0.22861142  0.79249167    -0.82470
O422        O  0.15522852  0.07540025  0.68070473    -0.80770
O423        O  0.25519187  0.17368952  0.80170705    -0.84980
O424        O  0.25383665  0.18274149  0.67832870    -0.79830
O425        O  0.14762048  0.17014289  0.79976047    -0.81610
O426        O  0.21579997  0.01690698  0.67992438    -0.84350
C427        C  0.23354345  0.21211488  0.65148290     0.96420
C428        C  0.23759235  0.21248469  0.81871133     1.03850
O429        O  0.20544163  0.12224003  0.73891612    -1.13330
O430        O  0.21324443  0.02245609  0.80667395    -0.75770
O431        O  0.26126935  0.06592608  0.79448951    -0.79250
O432        O  0.20258725  0.21793839  0.66615267    -0.79940
C433        C  0.24362170  0.03281813  0.82094506     0.95320
O434        O  0.25754085  0.07443251  0.66992290    -0.77900
O435        O  0.15146797  0.08170115  0.79733279    -0.83090
C436        C  0.13085256  0.10674231  0.68812254     0.97940
C437        C  0.13661937  0.12423366  0.81104328     1.03860
O438        O  0.13704097  0.15625773  0.69385384    -0.78740
C439        C  0.24112216  0.03408056  0.65299629     1.02160
C440        C  0.25661425  0.24802537  0.85969631    -0.03280
C441        C  0.25175439  0.24769775  0.60932468    -0.03280
C442        C  0.00731531  0.98614694  0.62922360    -0.03280
Fe443      Fe  0.26133752  0.37415887  0.73618017     1.65780
Fe444      Fe  0.33131390  0.30220624  0.73414757     1.73250
Fe445      Fe  0.33707970  0.43917992  0.73391188     1.54410
O446        O  0.31121440  0.46683256  0.66390770    -0.82470
O447        O  0.36879745  0.33137653  0.78602486    -0.80770
O448        O  0.25995451  0.43367706  0.68000630    -0.84980
O449        O  0.26355902  0.42244772  0.80336673    -0.79830
O450        O  0.37732547  0.40519334  0.68909548    -0.81610
O451        O  0.30590856  0.27319062  0.80295377    -0.84350
C452        C  0.28118301  0.46219007  0.81884066     0.96420
C453        C  0.27951654  0.46242607  0.65205782     1.03850
O454        O  0.31007492  0.37188330  0.73533949    -1.13330
O455        O  0.29784368  0.26643022  0.67649717    -0.75770
O456        O  0.25578703  0.32429232  0.66899930    -0.79250
O457        O  0.30515759  0.47949576  0.78933830    -0.79940
C458        C  0.27163081  0.28363551  0.65106409     0.95320
O459        O  0.25680179  0.31538184  0.79310058    -0.77900
O460        O  0.35642923  0.32692689  0.66841895    -0.83090
C461        C  0.37811176  0.37431483  0.80925817     0.97940
C462        C  0.38134726  0.35812927  0.67075495     1.03860
O463        O  0.36449606  0.41890469  0.79997226    -0.78740
C464        C  0.27569014  0.28310829  0.81883048     1.02160
Fe465      Fe  0.26136752  0.12151011  0.98501037     1.65780
Fe466      Fe  0.33018551  0.19365516  0.48728799     1.73250
Fe467      Fe  0.33733347  0.05739968  0.49159821     1.54420
O468        O  0.31071927  0.03056199  0.56015646    -0.82470
O469        O  0.37197661  0.16351048  0.94459446    -0.80770
O470        O  0.25921147  0.06075775  0.54012518    -0.84980
O471        O  0.26400128  0.07408807  0.91746954    -0.79830
O472        O  0.37464076  0.09452214  0.54007183    -0.81610
O473        O  0.30724110  0.21895556  0.91437364    -0.84350
C474        C  0.28159911  0.03372924  0.90354382     0.96420
C475        C  0.27896344  0.03384858  0.57024174     1.03850
O476        O  0.30988532  0.12376830  0.48598394    -1.13330
O477        O  0.29423747  0.23160561  0.53806886    -0.75770
O478        O  0.25701982  0.16864794  0.55389547    -0.79250
O479        O  0.30588796  0.01681135  0.93386917    -0.79940
C480        C  0.27111579  0.21217317  0.56784994     0.95320
O481        O  0.25679992  0.18280018  0.92936459    -0.77900
O482        O  0.35006173  0.17087350  0.55729490    -0.83090
C483        C  0.38367464  0.12013381  0.92503035     0.97940
C484        C  0.37576202  0.14171264  0.55915588     1.03860
O485        O  0.36816209  0.07629484  0.92930601    -0.78740
C486        C  0.27592455  0.21245307  0.90124778     1.02160
C487        C  0.26353861  0.99761737  0.86150446    -0.03280
C488        C  0.26026168  0.99825651  0.61139343    -0.03280
C489        C  0.49479787  0.25253022  0.86899535    -0.03280
C490        C  0.74707256  0.99855377  0.88354600    -0.03280
Fe491      Fe  0.75196598  0.12179521  0.75871937     1.65780
Fe492      Fe  0.68821590  0.20525050  0.75314071     1.73250
Fe493      Fe  0.67049723  0.06992967  0.76097077     1.54410
O494        O  0.69756066  0.02578523  0.70085920    -0.82470
O495        O  0.65315059  0.18926946  0.80857480    -0.80770
O496        O  0.74658440  0.06914646  0.69555063    -0.84980
O497        O  0.74870831  0.06638717  0.81833833    -0.79830
O498        O  0.63929710  0.09964115  0.70246364    -0.81610
O499        O  0.71663364  0.23260229  0.81977888    -0.84350
C500        C  0.72825360  0.03665547  0.84332397     0.96420
C501        C  0.72535635  0.03551329  0.67634016     1.03850
O502        O  0.70331639  0.13207294  0.75854014    -1.13330
O503        O  0.72078403  0.23226546  0.69408136    -0.75770
O504        O  0.76322511  0.17554110  0.69784294    -0.79250
O505        O  0.69685757  0.03326290  0.82823766    -0.79940
C506        C  0.74846491  0.21464196  0.67549175     0.95320
O507        O  0.75961557  0.17514476  0.82257754    -0.77900
O508        O  0.66102900  0.17876245  0.68878608    -0.83090
C509        C  0.62755479  0.16002226  0.80565427     0.97940
C510        C  0.63626436  0.14722485  0.68675645     1.03860
O511        O  0.63298978  0.10967174  0.80750680    -0.78740
C512        C  0.74318060  0.21407643  0.84320787     1.02160
C513        C  0.74134028  0.99815413  0.63343336    -0.03280
Fe514      Fe  0.75181793  0.37494578  0.01037866     1.65780
Fe515      Fe  0.68776599  0.29255021  0.51914199     1.73250
Fe516      Fe  0.67060976  0.42625918  0.50244264     1.54420
O517        O  0.69627873  0.47009769  0.56588623    -0.82470
O518        O  0.64515554  0.30368011  0.97635732    -0.80770
O519        O  0.74608566  0.42848364  0.57121653    -0.84980
O520        O  0.74922495  0.42944724  0.94859022    -0.79830
O521        O  0.63819094  0.39609955  0.55811442    -0.81610
O522        O  0.71432684  0.26454320  0.94955848    -0.84350
C523        C  0.72883722  0.46012914  0.92356181     0.96420
C524        C  0.72465899  0.46127849  0.59037963     1.03850
O525        O  0.70315668  0.36478594  0.50833956    -1.13330
O526        O  0.72248511  0.26500972  0.57439929    -0.75770
O527        O  0.76331009  0.32367666  0.57441554    -0.79250
O528        O  0.69775519  0.46436719  0.93841874    -0.79940
C529        C  0.74909075  0.28371435  0.59551540     0.95320
O530        O  0.75910795  0.31937093  0.94966196    -0.77900
O531        O  0.66352374  0.32307190  0.58441117    -0.83090
C532        C  0.62663970  0.33695430  0.95348231     0.97940
C533        C  0.63677454  0.35045307  0.57888902     1.03860
O534        O  0.63716726  0.38525810  0.94790825    -0.78740
C535        C  0.74212184  0.28137622  0.92816872     1.02160
C536        C  0.50745927  0.24802896  0.61964188    -0.03280
C537        C  0.59845049  0.27156723  0.57056614    -0.02640
C538        C  0.60263249  0.32524282  0.58383509     0.07040
C539        C  0.57339828  0.35675106  0.58797231    -0.02760
C540        C  0.54038789  0.33492039  0.57963783    -0.02760
C541        C  0.53403160  0.27783421  0.57771058     0.07170
C542        C  0.56537156  0.25076590  0.56206372    -0.02950
Br543      Br  0.56875390  0.18410584  0.52906279    -0.01500
Br544      Br  0.63836104  0.22358295  0.56637790    -0.01570
Br545      Br  0.51290553  0.38832093  0.54557194    -0.01530
Br546      Br  0.57854655  0.43088303  0.60868801    -0.01520
C547        C  0.57744556  0.13593056  0.64772342    -0.02640
C548        C  0.60237527  0.16847123  0.67087238     0.07000
C549        C  0.59438495  0.22153719  0.68295862    -0.02760
C550        C  0.56066357  0.23974643  0.67911254    -0.02760
C551        C  0.53464209  0.21124185  0.65062657     0.07170
C552        C  0.54476263  0.15661103  0.63399192    -0.02950
Br553      Br  0.52193212  0.10706075  0.58187237    -0.01500
Br554      Br  0.59171395  0.06571877  0.62366281    -0.01570
Br555      Br  0.55640621  0.31203144  0.69892541    -0.01530
Br556      Br  0.63066422  0.27422377  0.69582526    -0.01520
C557        C  0.55518150  0.26730197  0.81619703    -0.02640
C558        C  0.52386372  0.23531076  0.82337042     0.07040
C559        C  0.52910637  0.17965178  0.80472513    -0.02760
C560        C  0.56220946  0.15845269  0.79223961    -0.02760
C561        C  0.59216044  0.18690545  0.80457096     0.07170
C562        C  0.58820763  0.24291437  0.81197275    -0.02950
Br563      Br  0.62856793  0.28891734  0.82261674    -0.01500
Br564      Br  0.55961001  0.34508791  0.82419041    -0.01570
Br565      Br  0.56698036  0.08554659  0.76600827    -0.01530
Br566      Br  0.49725139  0.12028400  0.80984854    -0.01520
C567        C  0.52810532  0.32757125  0.92978064    -0.02640
C568        C  0.52257653  0.27162092  0.91425117     0.07040
C569        C  0.55232126  0.23786528  0.92375313    -0.02760
C570        C  0.58546882  0.25984614  0.93313595    -0.02760
C571        C  0.59091011  0.31568665  0.93995758     0.07170
C572        C  0.56160460  0.34804947  0.94258936    -0.02950
Br573      Br  0.56880806  0.42434377  0.95253424    -0.01500
Br574      Br  0.49473719  0.38502117  0.92414598    -0.01570
Br575      Br  0.62434587  0.21047308  0.93033135    -0.01530
Br576      Br  0.55216687  0.15969076  0.91242255    -0.01520
C577        C  0.44640288  0.12610898  0.93125909    -0.02640
C578        C  0.41757012  0.12187209  0.89915635     0.07040
C579        C  0.41888404  0.14488430  0.85034751    -0.02760
C580        C  0.43963669  0.19006311  0.84362697    -0.02760
C581        C  0.46935902  0.20185827  0.87818022     0.07170
C582        C  0.47073575  0.16699269  0.92293775    -0.02950
Br583      Br  0.49187505  0.18781490  0.98554393    -0.01500
Br584      Br  0.45036340  0.07626777  0.48854405    -0.01570
Br585      Br  0.41034835  0.23995942  0.80908011    -0.01530
Br586      Br  0.38598464  0.12000253  0.79816538    -0.01520
C587        C  0.46259871  0.16054740  0.62485459    -0.02640
C588        C  0.47550589  0.21055682  0.59992705     0.07040
C589        C  0.44950581  0.23749908  0.57018206    -0.02760
C590        C  0.41578663  0.21909604  0.56625849    -0.02760
C591        C  0.40814096  0.16596833  0.57810212     0.07170
C592        C  0.43118855  0.13721864  0.60837310    -0.02950
Br593      Br  0.41486779  0.06947889  0.63581905    -0.01500
Br594      Br  0.48172501  0.11550309  0.68208225    -0.01570
Br595      Br  0.37952568  0.27124542  0.05446661    -0.01530
Br596      Br  0.45799425  0.30253660  0.53506185    -0.01520
C597        C  0.47737284  0.34776930  0.64303333    -0.02640
C598        C  0.48520851  0.29201297  0.65463792     0.07040
C599        C  0.45876681  0.26973146  0.68427384    -0.02760
C600        C  0.42445788  0.28493660  0.67948975    -0.02760
C601        C  0.41619128  0.33577512  0.66035818     0.07170
C602        C  0.44304063  0.36681477  0.64148299    -0.02950
Br603      Br  0.43263773  0.43411151  0.60880593    -0.01500
Br604      Br  0.50533359  0.40769349  0.66694503    -0.01570
Br605      Br  0.39001085  0.23045657  0.68875885    -0.01530
Br606      Br  0.47122872  0.22134692  0.73436830    -0.01520
C607        C  0.43607394  0.30570348  0.89804392    -0.02640
C608        C  0.46572445  0.29956802  0.86263345     0.07040
C609        C  0.46499264  0.33906916  0.82229251    -0.02760
C610        C  0.43925351  0.37778713  0.81612565    -0.02760
C611        C  0.40918539  0.37231066  0.84248207     0.07170
C612        C  0.40939378  0.34311948  0.88823740    -0.02950
Br613      Br  0.36957740  0.35266461  0.93221944    -0.01500
Br614      Br  0.41788328  0.25294482  0.94279101    -0.01570
Br615      Br  0.44242363  0.43796097  0.76867926    -0.01530
Br616      Br  0.49309806  0.33955564  0.76776855    -0.01520
C617        C  0.08994357  0.03219037  0.70939590    -0.02640
C618        C  0.09548696  0.08423269  0.69031777     0.07040
C619        C  0.06780461  0.11143290  0.66802478    -0.02760
C620        C  0.03575469  0.08589431  0.66081646    -0.02760
C621        C  0.03220324  0.02685841  0.66425818     0.07170
C622        C  0.06132574  0.00239134  0.69247266    -0.02950
Br623      Br  0.07383777  0.42534189  0.69308324    -0.01500
Br624      Br  0.12422250  0.99511273  0.75174745    -0.01570
Br625      Br  0.00293363  0.14468594  0.66709857    -0.01530
Br626      Br  0.07615920  0.17930194  0.63275223    -0.01520
C627        C  0.10212895  0.44516487  0.58950349    -0.02640
C628        C  0.10195119  0.39262947  0.57330504     0.07040
C629        C  0.07022151  0.36820298  0.56602543    -0.02760
C630        C  0.03879982  0.39557306  0.57896188    -0.02760
C631        C  0.03766668  0.45200852  0.59577029     0.07170
C632        C  0.07228122  0.47570052  0.58959037    -0.02950
Br633      Br  0.08590500  0.54903123  0.57664891    -0.01500
Br634      Br  0.14450299  0.47349689  0.61914022    -0.01570
Br635      Br  0.00132020  0.35025141  0.56280024    -0.01530
Br636      Br  0.07114540  0.29588314  0.03827273    -0.01520
C637        C  0.06979089  0.07850862  0.90526301    -0.02640
C638        C  0.04159750  0.06299428  0.86913040     0.07040
C639        C  0.04587995  0.08658895  0.82008316    -0.02760
C640        C  0.07330715  0.12071362  0.80804765    -0.02760
C641        C  0.10351364  0.11700601  0.83705608     0.07170
C642        C  0.10224982  0.09409793  0.88607697    -0.02950
Br643      Br  0.14176886  0.11163350  0.93045130    -0.01500
Br644      Br  0.06395912  0.12379142  0.96500796    -0.01570
Br645      Br  0.06541275  0.18554144  0.77025440    -0.01530
Br646      Br  0.01320579  0.07608786  0.77234071    -0.01520
C647        C  0.05691244  0.46961709  0.93893936    -0.02640
C648        C  0.03897602  0.47353055  0.89209425     0.07040
C649        C  0.05452041  0.44536964  0.84915459    -0.02760
C650        C  0.08328922  0.41092986  0.85673132    -0.02760
C651        C  0.10242042  0.41531081  0.90340336     0.07170
C652        C  0.09049965  0.45130947  0.94118759    -0.02950
Br653      Br  0.12246976  0.49756188  0.47439634    -0.01500
Br654      Br  0.03914092  0.50500772  0.99356823    -0.01570
Br655      Br  0.09707961  0.35900801  0.80515290    -0.01530
Br656      Br  0.03077608  0.44364663  0.78508599    -0.01520
C657        C  0.94344494  0.98567839  0.58313353    -0.02640
C658        C  0.97666502  0.01211688  0.59054956     0.07040
C659        C  0.97333108  0.06796790  0.57912217    -0.02760
C660        C  0.94150856  0.09618105  0.57898915    -0.02760
C661        C  0.91007422  0.06918241  0.58359542     0.07170
C662        C  0.91153890  0.01312565  0.58361173    -0.02950
Br663      Br  0.86909446  0.97109005  0.58511536    -0.01500
Br664      Br  0.93580187  0.41084178  0.57393814    -0.01570
Br665      Br  0.94218798  0.17377416  0.57787118    -0.01530
Br666      Br  0.00888208  0.10760543  0.54952686    -0.01520
C667        C  0.92905401  0.02868026  0.95608548    -0.02640
C668        C  0.91857416  0.08255755  0.94849234     0.07040
C669        C  0.94435290  0.12072160  0.94063130    -0.02760
C670        C  0.97761651  0.10403559  0.92505849    -0.02760
C671        C  0.98726666  0.04774122  0.92604883     0.07170
C672        C  0.96361149  0.01462986  0.95336656    -0.02950
Br673      Br  0.97401496  0.44235733  0.97137131    -0.01500
Br674      Br  0.89695056  0.96871777  0.96082929    -0.01570
Br675      Br  0.00215648  0.16158065  0.89100418    -0.01530
Br676      Br  0.93306486  0.19626853  0.94226404    -0.01520
C677        C  0.92139437  0.46512572  0.70220225    -0.02640
C678        C  0.91533515  0.41079691  0.69455413     0.07040
C679        C  0.94421159  0.37730113  0.68769055    -0.02760
C680        C  0.97756260  0.39902600  0.67927036    -0.02760
C681        C  0.98257127  0.45582518  0.67220548     0.07170
C682        C  0.95433483  0.48621209  0.69416795    -0.02950
Br683      Br  0.95213133  0.06062992  0.69678824    -0.01500
Br684      Br  0.88295325  0.51418512  0.71608156    -0.01570
Br685      Br  0.01308584  0.34707695  0.69031273    -0.01530
Br686      Br  0.93757582  0.30123265  0.67780587    -0.01520
C687        C  0.91514476  0.48874072  0.83942547    -0.02640
C688        C  0.91200895  0.43225628  0.83956197     0.07040
C689        C  0.94198191  0.40288015  0.83991202    -0.02760
C690        C  0.97338844  0.42740752  0.85409871    -0.02760
C691        C  0.97886330  0.48691319  0.85168711     0.07170
C692        C  0.94738886  0.51449565  0.83687080    -0.02950
Br693      Br  0.94229772  0.08968333  0.82099793    -0.01500
Br694      Br  0.87399515  0.53327554  0.84728987    -0.01570
Br695      Br  0.00319845  0.36956277  0.88173712    -0.01530
Br696      Br  0.93982571  0.32748057  0.82082529    -0.01520
C697        C  0.76929137  0.74894072  0.13616534    -0.03280
C698        C  0.76230018  0.74792413  0.38627514    -0.03280
Fe699      Fe  0.75807619  0.87149872  0.25971917     1.65780
Fe700      Fe  0.82295175  0.95146863  0.24957183     1.73250
Fe701      Fe  0.83900012  0.81775015  0.27007857     1.54410
O702        O  0.81118615  0.78064759  0.33217794    -0.82470
O703        O  0.85364289  0.91961018  0.19034064    -0.80770
O704        O  0.76033772  0.81635713  0.32063985    -0.84980
O705        O  0.76434283  0.81912457  0.19764611    -0.79830
O706        O  0.86978216  0.85831448  0.32767214    -0.81610
O707        O  0.79089059  0.97705768  0.18881175    -0.84350
C708        C  0.78582188  0.78571243  0.17932212     0.96420
C709        C  0.78035573  0.78588191  0.34650425     1.03850
O710        O  0.80692306  0.88005648  0.26100945    -1.13330
O711        O  0.79319925  0.98258575  0.31561440    -0.75770
O712        O  0.75068278  0.92467075  0.32221457    -0.79250
O713        O  0.81376290  0.77567639  0.20491661    -0.79940
C714        C  0.76691190  0.96471363  0.34069849     0.95320
O715        O  0.74629465  0.92609528  0.19833479    -0.77900
O716        O  0.86045927  0.93920194  0.29882531    -0.83090
C717        C  0.87944095  0.88997343  0.19941518     0.97940
C718        C  0.87829819  0.90756481  0.32417812     1.03860
O719        O  0.87517912  0.84426340  0.21844064    -0.78740
C720        C  0.76172846  0.96271729  0.17334981     1.02160
Fe721      Fe  0.75814173  0.62523809  0.01097595     1.65780
Fe722      Fe  0.82274277  0.54407728  0.51749290     1.73250
Fe723      Fe  0.83900707  0.67894356  0.50885033     1.54420
O724        O  0.81020025  0.71965511  0.44762527    -0.82470
O725        O  0.84830412  0.57255421  0.08358726    -0.80770
O726        O  0.76088020  0.67695165  0.44781738    -0.84980
O727        O  0.76386731  0.68086305  0.07117197    -0.79830
O728        O  0.86951601  0.64419294  0.45107471    -0.81610
O729        O  0.78770151  0.51385642  0.07102882    -0.84350
C730        C  0.78552406  0.71155564  0.09402590     0.96420
C731        C  0.78074795  0.71057682  0.42687065     1.03850
O732        O  0.80679599  0.61638879  0.51059513    -1.13330
O733        O  0.79610061  0.51730736  0.44648500    -0.75770
O734        O  0.74980206  0.56839026  0.45041602    -0.79250
O735        O  0.81509603  0.71820209  0.07435594    -0.79940
C736        C  0.76716570  0.53229015  0.42672352     0.95320
O737        O  0.74807163  0.57489938  0.07537279    -0.77900
O738        O  0.86390127  0.56091989  0.47499094    -0.83090
C739        C  0.87592494  0.59777876  0.07874762     0.97940
C740        C  0.88170444  0.59741279  0.45642429     1.03860
O741        O  0.87446321  0.64494974  0.06115091    -0.78740
C742        C  0.76183055  0.53302869  0.09382768     1.02160
C743        C  0.01123157  0.51906586  0.38262605    -0.03280
Fe744      Fe  0.25483106  0.87121920  0.98596160     1.65780
Fe745      Fe  0.18642260  0.94417013  0.98052798     1.73250
Fe746      Fe  0.17736071  0.80734560  0.97935060     1.54420
O747        O  0.20556058  0.77848418  0.41187490    -0.82470
O748        O  0.14960990  0.91303335  0.02539116    -0.80770
O749        O  0.25676793  0.81228227  0.42912018    -0.84980
O750        O  0.25200879  0.82227525  0.05178483    -0.79830
O751        O  0.13943587  0.84272053  0.42949627    -0.81610
O752        O  0.21089614  0.97227223  0.05222226    -0.84350
C753        C  0.23363802  0.78370143  0.06732007     0.96420
C754        C  0.23719983  0.78359935  0.40041968     1.03850
O755        O  0.20603605  0.87383489  0.48290468    -1.13330
O756        O  0.21979877  0.98101693  0.42816149    -0.75770
O757        O  0.26021038  0.92088095  0.41936628    -0.79250
O758        O  0.20822920  0.76784658  0.03861718    -0.79940
C759        C  0.24472505  0.96222071  0.40224040     0.95320
O760        O  0.25987479  0.92997977  0.04418487    -0.77900
O761        O  0.16208711  0.92086170  0.41204183    -0.83090
C762        C  0.13399807  0.87544045  0.04657017     0.97940
C763        C  0.13665991  0.89029453  0.41203913     1.03860
O764        O  0.14450583  0.82806506  0.04108005    -0.78740
C765        C  0.24099837  0.96236924  0.06962929     1.02160
Fe766      Fe  0.25441600  0.62433224  0.23627202     1.65780
Fe767      Fe  0.18510573  0.55196198  0.24134390     1.73250
Fe768      Fe  0.17783889  0.68981537  0.23681697     1.54410
O769        O  0.21130067  0.72861401  0.29249006    -0.82470
O770        O  0.15523024  0.57540740  0.18070107    -0.80770
O771        O  0.25519342  0.67368891  0.30170824    -0.84980
O772        O  0.25383792  0.68274282  0.17832908    -0.79830
O773        O  0.14762624  0.67014728  0.29976525    -0.81610
O774        O  0.21580033  0.51690883  0.17992298    -0.84350
C775        C  0.23354451  0.71211566  0.15148284     0.96420
C776        C  0.23759465  0.71248540  0.31871148     1.03850
O777        O  0.20544303  0.62224222  0.23891583    -1.13330
O778        O  0.21324388  0.52245762  0.30667265    -0.75770
O779        O  0.26126966  0.56592573  0.29448857    -0.79250
O780        O  0.20258832  0.71793927  0.16615235    -0.79940
C781        C  0.24362144  0.53281844  0.32094404     0.95320
O782        O  0.25754173  0.57443345  0.16992198    -0.77900
O783        O  0.15146721  0.58170499  0.29732855    -0.83090
C784        C  0.13085385  0.60674885  0.18811948     0.97940
C785        C  0.13662277  0.62423887  0.31104560     1.03860
O786        O  0.13704178  0.65626349  0.19385722    -0.78740
C787        C  0.24112283  0.53408167  0.15299523     1.02160
C788        C  0.25661621  0.74802582  0.35969680    -0.03280
C789        C  0.25175503  0.74769828  0.10932442    -0.03280
C790        C  0.00731422  0.48615413  0.12922031    -0.03280
Fe791      Fe  0.26133753  0.87415917  0.23618047     1.65780
Fe792      Fe  0.33131468  0.80220793  0.23414678     1.73250
Fe793      Fe  0.33707921  0.93918163  0.23391289     1.54410
O794        O  0.31121355  0.96683414  0.16390880    -0.82470
O795        O  0.36879823  0.83137830  0.28602386    -0.80770
O796        O  0.25995386  0.93367713  0.18000627    -0.84980
O797        O  0.26355796  0.92244813  0.30336690    -0.79830
O798        O  0.37732543  0.90519627  0.18909610    -0.81610
O799        O  0.30590992  0.77319128  0.30295311    -0.84350
C800        C  0.28118166  0.96219045  0.31884149     0.96420
C801        C  0.27951582  0.96242666  0.15205817     1.03850
O802        O  0.31007500  0.87188456  0.23533976    -1.13330
O803        O  0.29784468  0.76643156  0.17649622    -0.75770
O804        O  0.25578735  0.82429246  0.16899962    -0.79250
O805        O  0.30515662  0.97949633  0.28933990    -0.79940
C806        C  0.27163147  0.78363632  0.15106369     0.95320
O807        O  0.25680306  0.81538265  0.29310157    -0.77900
O808        O  0.35642957  0.82692999  0.16841825    -0.83090
C809        C  0.37811216  0.87431637  0.30925790     0.97940
C810        C  0.38134754  0.85813244  0.17075502     1.03860
O811        O  0.36449586  0.91890607  0.29997307    -0.78740
C812        C  0.27569177  0.78310916  0.31883096     1.02160
Fe813      Fe  0.26136835  0.62151008  0.48501035     1.65780
Fe814      Fe  0.33018593  0.69365623  0.98728795     1.73250
Fe815      Fe  0.33733468  0.55740064  0.99159828     1.54420
O816        O  0.31072021  0.53056210  0.06015611    -0.82470
O817        O  0.37197783  0.66351017  0.44459568    -0.80770
O818        O  0.25921253  0.56075822  0.04012474    -0.84980
O819        O  0.26400138  0.57408811  0.41746930    -0.79830
O820        O  0.37464153  0.59452351  0.04007237    -0.81610
O821        O  0.30724277  0.71895614  0.41437476    -0.84350
C822        C  0.28159906  0.53372928  0.40354307     0.96420
C823        C  0.27896435  0.53384879  0.07024120     1.03850
O824        O  0.30988619  0.62376900  0.98598388    -1.13330
O825        O  0.29423785  0.73160632  0.03806857    -0.75770
O826        O  0.25702035  0.66864842  0.05389499    -0.79250
O827        O  0.30588824  0.51681134  0.43386779    -0.79940
C828        C  0.27111627  0.71217371  0.06784958     0.95320
O829        O  0.25680151  0.68280031  0.42936459    -0.77900
O830        O  0.35006220  0.67087476  0.05729493    -0.83090
C831        C  0.38367562  0.62013392  0.42503034     0.97940
C832        C  0.37576259  0.64171411  0.05915622     1.03860
O833        O  0.36816275  0.57629500  0.42930486    -0.78740
C834        C  0.27592635  0.71245345  0.40124827     1.02160
C835        C  0.26353818  0.49761748  0.36150394    -0.03280
C836        C  0.26026219  0.49825693  0.11139257    -0.03280
C837        C  0.49479859  0.75253153  0.36899418    -0.03280
C838        C  0.74707265  0.49855325  0.38354652    -0.03280
Fe839      Fe  0.75196618  0.62179508  0.25871967     1.65780
Fe840      Fe  0.68821652  0.70525098  0.25314215     1.73250
Fe841      Fe  0.67049723  0.56993025  0.26097207     1.54410
O842        O  0.69755995  0.52578578  0.20085992    -0.82470
O843        O  0.65315157  0.68926938  0.30857662    -0.80770
O844        O  0.74658378  0.56914664  0.19555085    -0.84980
O845        O  0.74870850  0.56638717  0.31833900    -0.79830
O846        O  0.63929684  0.59964252  0.20246552    -0.81610
O847        O  0.71663447  0.73260201  0.31978016    -0.84350
C848        C  0.72825380  0.53665537  0.34332466     0.96420
C849        C  0.72535548  0.53551378  0.17634049     1.03850
O850        O  0.70331669  0.63207325  0.25854111    -1.13330
O851        O  0.72078469  0.73226642  0.19408282    -0.75770
O852        O  0.76322527  0.67554101  0.19784309    -0.79250
O853        O  0.69685777  0.53326290  0.32823840    -0.79940
C854        C  0.74846531  0.71464251  0.17549257     0.95320
O855        O  0.75961639  0.67514437  0.32257765    -0.77900
O856        O  0.66102929  0.67876343  0.18878759    -0.83090
C857        C  0.62755558  0.66002265  0.30565561     0.97940
C858        C  0.63626448  0.64722613  0.18675783     1.03860
O859        O  0.63299034  0.60967217  0.30750888    -0.78740
C860        C  0.74318153  0.71407585  0.34320852     1.02160
C861        C  0.74133904  0.49815463  0.13343338    -0.03280
Fe862      Fe  0.75181889  0.87494513  0.51037861     1.65780
Fe863      Fe  0.68776524  0.79255256  0.01914474     1.73250
Fe864      Fe  0.67061099  0.92626227  0.00244592     1.54420
O865        O  0.69628191  0.97009915  0.06588861    -0.82470
O866        O  0.64515622  0.80368068  0.47635638    -0.80770
O867        O  0.74608879  0.92848438  0.07121603    -0.84980
O868        O  0.74922636  0.92944663  0.44859011    -0.79830
O869        O  0.63819232  0.89610414  0.05811904    -0.81610
O870        O  0.71432756  0.76454291  0.44955833    -0.84350
C871        C  0.72883885  0.96012897  0.42356177     0.96420
C872        C  0.72466273  0.96127950  0.09038028     1.03850
O873        O  0.70315703  0.86478777  0.00834153    -1.13330
O874        O  0.72248452  0.76501174  0.07440187    -0.75770
O875        O  0.76331098  0.82367621  0.07441473    -0.79250
O876        O  0.69775680  0.96436738  0.43841860    -0.79940
C877        C  0.74909108  0.78371520  0.09551625     0.95320
O878        O  0.75910899  0.81937001  0.44966225    -0.77900
O879        O  0.66352406  0.82307543  0.08441411    -0.83090
C880        C  0.62664050  0.83695505  0.45348144     0.97940
C881        C  0.63677505  0.85045685  0.07889172     1.03860
O882        O  0.63716824  0.88525878  0.44790743    -0.78740
C883        C  0.74212285  0.78137541  0.42816899     1.02160
C884        C  0.50745970  0.74803185  0.11964187    -0.03280
C885        C  0.59845096  0.77157070  0.07056673    -0.02640
C886        C  0.60263271  0.82524652  0.08383527     0.07040
C887        C  0.57339825  0.85675458  0.08797092    -0.02760
C888        C  0.54038796  0.83492332  0.07963667    -0.02760
C889        C  0.53403194  0.77783704  0.07771026     0.07170
C890        C  0.56537213  0.75076903  0.06206388    -0.02950
Br891      Br  0.56875483  0.68410901  0.02906279    -0.01500
Br892      Br  0.63836160  0.72358649  0.06637905    -0.01570
Br893      Br  0.51290484  0.88832322  0.04557128    -0.01530
Br894      Br  0.57854579  0.93088720  0.10868448    -0.01520
C895        C  0.57744573  0.63593258  0.14772404    -0.02640
C896        C  0.60237558  0.66847294  0.17087311     0.07000
C897        C  0.59438555  0.72153916  0.18295883    -0.02760
C898        C  0.56066428  0.73974899  0.17911226    -0.02760
C899        C  0.53464267  0.71124463  0.15062635     0.07170
C900        C  0.54476311  0.65661373  0.13399171    -0.02950
Br901      Br  0.52193271  0.60706394  0.08187165    -0.01500
Br902      Br  0.59171345  0.56571989  0.12366492    -0.01570
Br903      Br  0.55640738  0.81203432  0.19892424    -0.01530
Br904      Br  0.63066511  0.77422523  0.19582552    -0.01520
C905        C  0.55518265  0.76730298  0.31619626    -0.02640
C906        C  0.52386466  0.73531201  0.32336942     0.07040
C907        C  0.52910725  0.67965299  0.30472425    -0.02760
C908        C  0.56221039  0.65845355  0.29223946    -0.02760
C909        C  0.59216137  0.68690616  0.30457114     0.07170
C910        C  0.58820874  0.74291511  0.31197252    -0.02950
Br911      Br  0.62856929  0.78891757  0.32261689    -0.01500
Br912      Br  0.55961177  0.84508884  0.32418955    -0.01570
Br913      Br  0.56698132  0.58554705  0.26600917    -0.01530
Br914      Br  0.49725210  0.62028549  0.30984748    -0.01520
C915        C  0.52810613  0.82757274  0.42977917    -0.02640
C916        C  0.52257720  0.77162238  0.41424998     0.07040
C917        C  0.55232174  0.73786649  0.42375244    -0.02760
C918        C  0.58546935  0.75984707  0.43313550    -0.02760
C919        C  0.59091083  0.81568760  0.43995685     0.07170
C920        C  0.56160541  0.84805065  0.44258842    -0.02950
Br921      Br  0.56880904  0.92434479  0.45253402    -0.01500
Br922      Br  0.49473839  0.88502305  0.42414321    -0.01570
Br923      Br  0.62434618  0.71047352  0.43033154    -0.01530
Br924      Br  0.55216704  0.65969193  0.41242203    -0.01520
C925        C  0.44640388  0.62611034  0.43125880    -0.02640
C926        C  0.41757111  0.62187276  0.39915616     0.07040
C927        C  0.41888488  0.64488486  0.35034720    -0.02760
C928        C  0.43963732  0.69006391  0.34362638    -0.02760
C929        C  0.46935973  0.70185951  0.37817938     0.07170
C930        C  0.47073652  0.66699434  0.42293718    -0.02950
Br931      Br  0.49187536  0.68781792  0.48554328    -0.01500
Br932      Br  0.45036466  0.57627133  0.98854379    -0.01570
Br933      Br  0.41034835  0.73995995  0.30908028    -0.01530
Br934      Br  0.38598572  0.62000242  0.29816504    -0.01520
C935        C  0.46259933  0.66054991  0.12485465    -0.02640
C936        C  0.47550618  0.71055963  0.09992739     0.07040
C937        C  0.44950578  0.73750168  0.07018280    -0.02760
C938        C  0.41578672  0.71909811  0.06625917    -0.02760
C939        C  0.40814141  0.66597019  0.07810254     0.07170
C940        C  0.43118935  0.63722063  0.10837305    -0.02950
Br941      Br  0.41486953  0.56947981  0.13581785    -0.01500
Br942      Br  0.48172588  0.61550587  0.18208213    -0.01570
Br943      Br  0.37952459  0.77124348  0.55446524    -0.01530
Br944      Br  0.45799357  0.80253940  0.03506282    -0.01520
C945        C  0.47737340  0.84777237  0.14303378    -0.02640
C946        C  0.48520902  0.79201594  0.15463809     0.07040
C947        C  0.45876729  0.76973457  0.18427411    -0.02760
C948        C  0.42445836  0.78493987  0.17949012    -0.02760
C949        C  0.41619176  0.83577847  0.16035874     0.07170
C950        C  0.44304121  0.86681811  0.14148379    -0.02950
Br951      Br  0.43263842  0.93411513  0.10880727    -0.01500
Br952      Br  0.50533459  0.90769629  0.16694482    -0.01570
Br953      Br  0.39001130  0.73045985  0.18875891    -0.01530
Br954      Br  0.47122910  0.72134972  0.23436835    -0.01520
C955        C  0.43607469  0.80570491  0.39804291    -0.02640
C956        C  0.46572506  0.79956919  0.36263215     0.07040
C957        C  0.46499308  0.83907011  0.32229099    -0.02760
C958        C  0.43925389  0.87778798  0.31612405    -0.02760
C959        C  0.40918603  0.87231216  0.34248122     0.07170
C960        C  0.40939469  0.84312129  0.38823676    -0.02950
Br961      Br  0.36957885  0.85266741  0.43221974    -0.01500
Br962      Br  0.41788355  0.75294608  0.44278954    -0.01570
Br963      Br  0.44242384  0.93796191  0.26867776    -0.01530
Br964      Br  0.49309967  0.83955836  0.26776851    -0.01520
C965        C  0.08994554  0.53219594  0.20938654    -0.02640
C966        C  0.09548827  0.58423917  0.19031211     0.07040
C967        C  0.06780559  0.61144051  0.16802115    -0.02760
C968        C  0.03575527  0.58590221  0.16081210    -0.02760
C969        C  0.03220374  0.52686595  0.16425262     0.07170
C970        C  0.06132821  0.50239762  0.19246120    -0.02950
Br971      Br  0.07384115  0.92534386  0.19308455    -0.01500
Br972      Br  0.12422562  0.49511654  0.25173424    -0.01570
Br973      Br  0.00293368  0.64469463  0.16708470    -0.01530
Br974      Br  0.07616126  0.67930990  0.13274956    -0.01520
C975        C  0.10212887  0.94516573  0.08950265    -0.02640
C976        C  0.10194998  0.89263080  0.07330217     0.07040
C977        C  0.07021964  0.86820632  0.06602191    -0.02760
C978        C  0.03879884  0.89557561  0.07896521    -0.02760
C979        C  0.03766681  0.95201076  0.09577485     0.07170
C980        C  0.07228145  0.97570224  0.08959306    -0.02950
Br981      Br  0.08590607  0.04903308  0.07665262    -0.01500
Br982      Br  0.14450383  0.97349598  0.11913839    -0.01570
Br983      Br  0.00131806  0.85025158  0.06281740    -0.01530
Br984      Br  0.07114785  0.79587495  0.53827796    -0.01520
C985        C  0.06979345  0.57851290  0.40526314    -0.02640
C986        C  0.04159928  0.56300598  0.36912914     0.07040
C987        C  0.04588197  0.58660926  0.32008510    -0.02760
C988        C  0.07331125  0.62073071  0.30805304    -0.02760
C989        C  0.10351756  0.61701474  0.33705994     0.07170
C990        C  0.10225298  0.59410124  0.38607829    -0.02950
Br991      Br  0.14177270  0.61163005  0.43045352    -0.01500
Br992      Br  0.06396276  0.62379062  0.46501187    -0.01570
Br993      Br  0.06542472  0.68555616  0.27025119    -0.01530
Br994      Br  0.01320730  0.57612774  0.27233987    -0.01520
C995        C  0.05691037  0.96961081  0.43894948    -0.02640
C996        C  0.03897764  0.97353159  0.39210142     0.07040
C997        C  0.05452479  0.94537753  0.34916062    -0.02760
C998        C  0.08329174  0.91093449  0.35673649    -0.02760
C999        C  0.10241895  0.91530548  0.40341279     0.07170
C1000       C  0.09049688  0.95129982  0.44120018    -0.02950
Br1001     Br  0.12247239  0.99756217  0.97439341    -0.01500
Br1002     Br  0.03913793  0.00499903  0.49358032    -0.01570
Br1003     Br  0.09708460  0.85902000  0.30515269    -0.01530
Br1004     Br  0.03078462  0.94367000  0.28508972    -0.01520
C1005       C  0.94344253  0.48568136  0.08313301    -0.02640
C1006       C  0.97666232  0.51212127  0.09054801     0.07040
C1007       C  0.97332753  0.56797127  0.07912019    -0.02760
C1008       C  0.94150507  0.59618387  0.07898820    -0.02760
C1009       C  0.91007118  0.56918445  0.08359533     0.07170
C1010       C  0.91153623  0.51312775  0.08361055    -0.02950
Br1011     Br  0.86909196  0.47109126  0.08510984    -0.01500
Br1012     Br  0.93579917  0.91084243  0.07395522    -0.01570
Br1013     Br  0.94218415  0.67377703  0.07786616    -0.01530
Br1014     Br  0.00887699  0.60760512  0.04951893    -0.01520
C1015       C  0.92905340  0.52867385  0.45607789    -0.02640
C1016       C  0.91857297  0.58255179  0.44849246     0.07040
C1017       C  0.94435098  0.62071811  0.44063598    -0.02760
C1018       C  0.97761509  0.60403609  0.42506218    -0.02760
C1019       C  0.98726604  0.54774234  0.42604455     0.07170
C1020       C  0.96361093  0.51462434  0.45335552    -0.02950
Br1021     Br  0.97401303  0.94235004  0.47136576    -0.01500
Br1022     Br  0.89694993  0.46871101  0.46081391    -0.01570
Br1023     Br  0.00215584  0.66158696  0.39101912    -0.01530
Br1024     Br  0.93306146  0.69626424  0.44227767    -0.01520
C1025       C  0.92139833  0.96512487  0.20221526    -0.02640
C1026       C  0.91533976  0.91079565  0.19456758     0.07040
C1027       C  0.94421666  0.87730075  0.18770426    -0.02760
C1028       C  0.97756709  0.89902697  0.17928279    -0.02760
C1029       C  0.98257447  0.95582619  0.17221552     0.07170
C1030       C  0.95433828  0.98621247  0.19417928    -0.02950
Br1031     Br  0.95213461  0.56063684  0.19679044    -0.01500
Br1032     Br  0.88295681  0.01418345  0.21609373    -0.01570
Br1033     Br  0.01309102  0.84707979  0.19032876    -0.01530
Br1034     Br  0.93758247  0.80123175  0.17781958    -0.01520
C1035       C  0.91514702  0.98873996  0.33943107    -0.02640
C1036       C  0.91201187  0.93225520  0.33956550     0.07040
C1037       C  0.94198543  0.90288009  0.33991190    -0.02760
C1038       C  0.97339274  0.92740823  0.35409462    -0.02760
C1039       C  0.97886601  0.98691470  0.35168965     0.07170
C1040       C  0.94739076  0.01449658  0.33687656    -0.02950
Br1041     Br  0.94229870  0.58969782  0.32099797    -0.01500
Br1042     Br  0.87399675  0.03327322  0.34729760    -0.01570
Br1043     Br  0.00320467  0.86956323  0.38172674    -0.01530
Br1044     Br  0.93982834  0.82747926  0.32082937    -0.01520
C1045       C  0.76929106  0.74893995  0.63616511    -0.03280
C1046       C  0.76229798  0.74792455  0.88627469    -0.03280
Fe1047     Fe  0.75807449  0.87149837  0.75971885     1.65780
Fe1048     Fe  0.82295054  0.95146713  0.74957111     1.73250
Fe1049     Fe  0.83899820  0.81774902  0.77007925     1.54410
O1050       O  0.81118354  0.78064586  0.83217669    -0.82470
O1051       O  0.85364093  0.91960769  0.69033891    -0.80770
O1052       O  0.76033576  0.81635820  0.82064054    -0.84980
O1053       O  0.76434150  0.81912297  0.69764677    -0.79830
O1054       O  0.86977875  0.85831215  0.82767494    -0.81610
O1055       O  0.79088888  0.97705747  0.68881229    -0.84350
C1056       C  0.78582094  0.78571160  0.67932228     0.96420
C1057       C  0.78035353  0.78588201  0.84650411     1.03850
O1058       O  0.80692132  0.88005552  0.76100932    -1.13330
O1059       O  0.79319868  0.98258475  0.81561452    -0.75770
O1060       O  0.75068099  0.92467165  0.82221330    -0.79250
O1061       O  0.81376223  0.77567625  0.70491609    -0.79940
C1062       C  0.76691075  0.96471363  0.84069795     0.95320
O1063       O  0.74629327  0.92609393  0.69833361    -0.77900
O1064       O  0.86045827  0.93919850  0.79882369    -0.83090
C1065       C  0.87943920  0.88997126  0.69941368     0.97940
C1066       C  0.87829574  0.90756181  0.82417949     1.03860
O1067       O  0.87517807  0.84426299  0.71844350    -0.78740
C1068       C  0.76172698  0.96271667  0.67334961     1.02160
Fe1069     Fe  0.75814218  0.62523707  0.51097633     1.65780
Fe1070     Fe  0.82274264  0.54408005  0.01748948     1.73250
Fe1071     Fe  0.83900633  0.67894655  0.00884828     1.54420
O1072       O  0.81019848  0.71965723  0.94762411    -0.82470
O1073       O  0.84830490  0.57255054  0.58359068    -0.80770
O1074       O  0.76087885  0.67695222  0.94781671    -0.84980
O1075       O  0.76386748  0.68086187  0.57117237    -0.79830
O1076       O  0.86951578  0.64419786  0.95107218    -0.81610
O1077       O  0.78770089  0.51385541  0.57103174    -0.84350
C1078       C  0.78552415  0.71155449  0.59402641     0.96420
C1079       C  0.78074623  0.71057781  0.92686977     1.03850
O1080       O  0.80679553  0.61639114  0.01059275    -1.13330
O1081       O  0.79610039  0.51730955  0.94648211    -0.75770
O1082       O  0.74980113  0.56839060  0.95041600    -0.79250
O1083       O  0.81509643  0.71820032  0.57435717    -0.79940
C1084       C  0.76716480  0.53229115  0.92672238     0.95320
O1085       O  0.74807056  0.57489806  0.57537236    -0.77900
O1086       O  0.86390049  0.56092445  0.97498656    -0.83090
C1087       C  0.87592563  0.59777533  0.57874984     0.97940
C1088       C  0.88170393  0.59741745  0.95642072     1.03860
O1089       O  0.87446346  0.64494661  0.56115383    -0.78740
C1090       C  0.76182923  0.53302772  0.59382855     1.02160
C1091       C  0.01122898  0.51906008  0.88262577    -0.03280
Fe1092     Fe  0.25483122  0.87121915  0.48596240     1.65780
Fe1093     Fe  0.18642237  0.94416934  0.48053018     1.73250
Fe1094     Fe  0.17736143  0.80734454  0.47935139     1.54420
O1095       O  0.20555996  0.77848377  0.91187516    -0.82470
O1096       O  0.14961068  0.91303150  0.52539545    -0.80770
O1097       O  0.25676734  0.81228232  0.92911927    -0.84980
O1098       O  0.25200896  0.82227510  0.55178584    -0.79830
O1099       O  0.13943614  0.84272153  0.92949317    -0.81610
O1100       O  0.21089619  0.97227182  0.55222357    -0.84350
C1101       C  0.23363839  0.78370070  0.56732041     0.96420
C1102       C  0.23719906  0.78359906  0.90041935     1.03850
O1103       O  0.20603584  0.87383548  0.98290358    -1.13330
O1104       O  0.21979966  0.98101743  0.92816088    -0.75770
O1105       O  0.26021073  0.92088070  0.91936563    -0.79250
O1106       O  0.20823026  0.76784518  0.53861658    -0.79940
C1107       C  0.24472579  0.96222081  0.90223995     0.95320
O1108       O  0.25987485  0.92997964  0.54418548    -0.77900
O1109       O  0.16208805  0.92086236  0.91203863    -0.83090
C1110       C  0.13399958  0.87543754  0.54657428     0.97940
C1111       C  0.13666078  0.89029514  0.91203456     1.03860
O1112       O  0.14450743  0.82806247  0.54108215    -0.78740
C1113       C  0.24099848  0.96236896  0.56963008     1.02160
Fe1114     Fe  0.25441542  0.62433156  0.73627204     1.65780
Fe1115     Fe  0.18510589  0.55195864  0.74134591     1.73250
Fe1116     Fe  0.17783714  0.68981187  0.73681611     1.54410
O1117       O  0.21129812  0.72861134  0.79249122    -0.82470
O1118       O  0.15522849  0.57540029  0.68070437    -0.80770
O1119       O  0.25519260  0.67368900  0.80170736    -0.84980
O1120       O  0.25383724  0.68274164  0.67832907    -0.79830
O1121       O  0.14762234  0.67014240  0.79976176    -0.81610
O1122       O  0.21580051  0.51690718  0.67992388    -0.84350
C1123       C  0.23354397  0.71211468  0.65148308     0.96420
C1124       C  0.23759322  0.71248446  0.81871132     1.03850
O1125       O  0.20544221  0.62223977  0.73891598    -1.13330
O1126       O  0.21324518  0.52245614  0.80667356    -0.75770
O1127       O  0.26127020  0.56592583  0.79448879    -0.79250
O1128       O  0.20258764  0.71793777  0.66615247    -0.79940
C1129       C  0.24362257  0.53281805  0.82094444     0.95320
O1130       O  0.25754151  0.57443260  0.66992255    -0.77900
O1131       O  0.15146782  0.58170033  0.79733219    -0.83090
C1132       C  0.13085247  0.60674264  0.68812131     0.97940
C1133       C  0.13662024  0.62423348  0.81104363     1.03860
O1134       O  0.13704097  0.65625780  0.69385491    -0.78740
C1135       C  0.24112281  0.53408066  0.65299591     1.02160
C1136       C  0.25661503  0.74802529  0.85969640    -0.03280
C1137       C  0.25175495  0.74769755  0.60932502    -0.03280
C1138       C  0.00731407  0.48614902  0.62921791    -0.03280
Fe1139     Fe  0.26133737  0.87415890  0.73618049     1.65780
Fe1140     Fe  0.33131424  0.80220756  0.73414778     1.73250
Fe1141     Fe  0.33707911  0.93918122  0.73391234     1.54410
O1142       O  0.31121377  0.96683324  0.66390811    -0.82470
O1143       O  0.36879767  0.83137878  0.78602488    -0.80770
O1144       O  0.25995404  0.93367712  0.68000669    -0.84980
O1145       O  0.26355844  0.92244765  0.80336720    -0.79830
O1146       O  0.37732521  0.90519520  0.68909596    -0.81610
O1147       O  0.30590923  0.77319149  0.80295407    -0.84350
C1148       C  0.28118216  0.96219026  0.81884118     0.96420
C1149       C  0.27951596  0.96242631  0.65205820     1.03850
O1150       O  0.31007477  0.87188418  0.73533988    -1.13330
O1151       O  0.29784416  0.76643072  0.67649759    -0.75770
O1152       O  0.25578725  0.82429231  0.66899954    -0.79250
O1153       O  0.30515662  0.97949640  0.78933878    -0.79940
C1154       C  0.27163121  0.78363562  0.65106444     0.95320
O1155       O  0.25680212  0.81538173  0.79310076    -0.77900
O1156       O  0.35642912  0.82692881  0.66841895    -0.83090
C1157       C  0.37811163  0.87431717  0.80925840     0.97940
C1158       C  0.38134710  0.85813128  0.67075504     1.03860
O1159       O  0.36449547  0.91890670  0.79997280    -0.78740
C1160       C  0.27569070  0.78310855  0.81883067     1.02160
Fe1161     Fe  0.26136848  0.62151017  0.98501013     1.65780
Fe1162     Fe  0.33018621  0.69365529  0.48728879     1.73250
Fe1163     Fe  0.33733426  0.55739974  0.49159759     1.54420
O1164       O  0.31071995  0.53056149  0.56015566    -0.82470
O1165       O  0.37197741  0.66351138  0.94459482    -0.80770
O1166       O  0.25921221  0.56075794  0.54012505    -0.84980
O1167       O  0.26400225  0.57408809  0.91746918    -0.79830
O1168       O  0.37464142  0.59452196  0.54007161    -0.81610
O1169       O  0.30724197  0.71895614  0.91437387    -0.84350
C1170       C  0.28160021  0.53372946  0.90354314     0.96420
C1171       C  0.27896417  0.53384848  0.57024133     1.03850
O1172       O  0.30988606  0.62376836  0.48598376    -1.13330
O1173       O  0.29423813  0.73160565  0.53806941    -0.75770
O1174       O  0.25702050  0.66864792  0.55389545    -0.79250
O1175       O  0.30588919  0.51681167  0.93386829    -0.79940
C1176       C  0.27111644  0.71217307  0.56785029     0.95320
O1177       O  0.25680094  0.68280005  0.92936437    -0.77900
O1178       O  0.35006177  0.67087250  0.55729574    -0.83090
C1179       C  0.38367559  0.62013501  0.92503040     0.97940
C1180       C  0.37576233  0.64171224  0.55915621     1.03860
O1181       O  0.36816326  0.57629577  0.92930583    -0.78740
C1182       C  0.27592550  0.71245319  0.90124774     1.02160
C1183       C  0.26353966  0.49761750  0.86150380    -0.03280
C1184       C  0.26026233  0.49825651  0.61139306    -0.03280
C1185       C  0.49479782  0.75253356  0.86899525    -0.03280
C1186       C  0.74707147  0.49855371  0.88354609    -0.03280
Fe1187     Fe  0.75196460  0.62179500  0.75871942     1.65780
Fe1188     Fe  0.68821536  0.70525147  0.75314022     1.73250
Fe1189     Fe  0.67049566  0.56993102  0.76097250     1.54410
O1190       O  0.69755829  0.52578551  0.70086077    -0.82470
O1191       O  0.65314994  0.68927226  0.80857436    -0.80770
O1192       O  0.74658197  0.56914668  0.69555039    -0.84980
O1193       O  0.74870692  0.56638689  0.81833819    -0.79830
O1194       O  0.63929556  0.59964264  0.70246558    -0.81610
O1195       O  0.71663307  0.73260292  0.81977829    -0.84350
C1196       C  0.72825231  0.53665566  0.84332449     0.96420
C1197       C  0.72535360  0.53551351  0.67634063     1.03850
O1198       O  0.70331521  0.63207366  0.75854069    -1.13330
O1199       O  0.72078368  0.73226568  0.69408087    -0.75770
O1200       O  0.76322440  0.67554084  0.69784329    -0.79250
O1201       O  0.69685606  0.53326394  0.82823920    -0.79940
C1202       C  0.74846461  0.71464189  0.67549183     0.95320
O1203       O  0.75961435  0.67514415  0.82257780    -0.77900
O1204       O  0.66102842  0.67876298  0.68878581    -0.83090
C1205       C  0.62755415  0.66002506  0.80565486     0.97940
C1206       C  0.63626348  0.64722590  0.68675691     1.03860
O1207       O  0.63298904  0.60967454  0.80750885    -0.78740
C1208       C  0.74317954  0.71407619  0.84320785     1.02160
C1209       C  0.74133706  0.49815399  0.63343356    -0.03280
Fe1210     Fe  0.75181862  0.87494552  0.01037847     1.65780
Fe1211     Fe  0.68776586  0.79255141  0.51914341     1.73250
Fe1212     Fe  0.67061097  0.92626082  0.50244426     1.54420
O1213       O  0.69628107  0.97009822  0.56588749    -0.82470
O1214       O  0.64515544  0.80368264  0.97635802    -0.80770
O1215       O  0.74608807  0.92848392  0.57121598    -0.84980
O1216       O  0.74922589  0.92944702  0.94858992    -0.79830
O1217       O  0.63819187  0.89610217  0.55811654    -0.81610
O1218       O  0.71432610  0.76454351  0.94955915    -0.84350
C1219       C  0.72883825  0.96012949  0.92356198     0.96420
C1220       C  0.72466173  0.96127889  0.59037976     1.03850
O1221       O  0.70315734  0.86478678  0.50834055    -1.13330
O1222       O  0.72248485  0.76501081  0.57440079    -0.75770
O1223       O  0.76331102  0.82367582  0.57441493    -0.79250
O1224       O  0.69775640  0.96436837  0.93841964    -0.79940
C1225       C  0.74909115  0.78371442  0.59551575     0.95320
O1226       O  0.75910760  0.81937037  0.94966184    -0.77900
O1227       O  0.66352389  0.82307387  0.58441248    -0.83090
C1228       C  0.62663984  0.83695720  0.95348305     0.97940
C1229       C  0.63677482  0.85045523  0.57889002     1.03860
O1230       O  0.63716763  0.88526093  0.94790951    -0.78740
C1231       C  0.74212111  0.78137593  0.92816896     1.02160
C1232       C  0.50745911  0.74803081  0.61964117    -0.03280
C1233       C  0.59845065  0.77156921  0.57056619    -0.02640
C1234       C  0.60263250  0.82524499  0.58383461     0.07040
C1235       C  0.57339808  0.85675307  0.58797066    -0.02760
C1236       C  0.54038773  0.83492198  0.57963632    -0.02760
C1237       C  0.53403160  0.77783577  0.57770975     0.07170
C1238       C  0.56537178  0.75076760  0.56206349    -0.02950
Br1239     Br  0.56875455  0.68410750  0.52906257    -0.01500
Br1240     Br  0.63836130  0.72358501  0.56637863    -0.01570
Br1241     Br  0.51290478  0.88832176  0.54557044    -0.01530
Br1242     Br  0.57854582  0.93088552  0.60868449    -0.01520
C1243       C  0.57744495  0.63593199  0.64772333    -0.02640
C1244       C  0.60237468  0.66847257  0.67087233     0.07000
C1245       C  0.59438456  0.72153863  0.68295842    -0.02760
C1246       C  0.56066328  0.73974822  0.67911201    -0.02760
C1247       C  0.53464185  0.71124374  0.65062588     0.07170
C1248       C  0.54476231  0.65661290  0.63399117    -0.02950
Br1249     Br  0.52193198  0.60706290  0.58187119    -0.01500
Br1250     Br  0.59171288  0.56571938  0.62366407    -0.01570
Br1251     Br  0.55640613  0.81203344  0.69892446    -0.01530
Br1252     Br  0.63066402  0.77422472  0.69582555    -0.01520
C1253       C  0.55518118  0.76730518  0.81619661    -0.02640
C1254       C  0.52386344  0.73531398  0.82337017     0.07040
C1255       C  0.52910600  0.67965494  0.80472503    -0.02760
C1256       C  0.56220905  0.65845577  0.79223965    -0.02760
C1257       C  0.59215997  0.68690849  0.80457115     0.07170
C1258       C  0.58820727  0.74291750  0.81197262    -0.02950
Br1259     Br  0.62856756  0.78892047  0.82261673    -0.01500
Br1260     Br  0.55960962  0.84509122  0.82418953    -0.01570
Br1261     Br  0.56698002  0.58554947  0.76600887    -0.01530
Br1262     Br  0.49725111  0.62028705  0.80984859    -0.01520
C1263       C  0.52810551  0.82757484  0.92977999    -0.02640
C1264       C  0.52257661  0.77162444  0.91425084     0.07040
C1265       C  0.55232128  0.73786870  0.92375294    -0.02760
C1266       C  0.58546885  0.75984942  0.93313592    -0.02760
C1267       C  0.59091025  0.81568990  0.93995765     0.07170
C1268       C  0.56160481  0.84805291  0.94258892    -0.02950
Br1269     Br  0.56880837  0.92434715  0.95253403    -0.01500
Br1270     Br  0.49473761  0.88502507  0.92414445    -0.01570
Br1271     Br  0.62434585  0.71047623  0.93033118    -0.01530
Br1272     Br  0.55216682  0.65969420  0.91242228    -0.01520
C1273       C  0.44640366  0.62611168  0.93125885    -0.02640
C1274       C  0.41757092  0.62187420  0.89915615     0.07040
C1275       C  0.41888432  0.64488718  0.85034760    -0.02760
C1276       C  0.43963676  0.69006625  0.84362713    -0.02760
C1277       C  0.46935909  0.70186160  0.87818027     0.07170
C1278       C  0.47073608  0.66699605  0.92293772    -0.02950
Br1279     Br  0.49187527  0.68781876  0.98554384    -0.01500
Br1280     Br  0.45036477  0.57627036  0.48854402    -0.01570
Br1281     Br  0.41034859  0.73996244  0.80907984    -0.01530
Br1282     Br  0.38598468  0.62000563  0.79816573    -0.01520
C1283       C  0.46259891  0.66054875  0.62485440    -0.02640
C1284       C  0.47550570  0.71055839  0.59992678     0.07040
C1285       C  0.44950531  0.73750025  0.57018201    -0.02760
C1286       C  0.41578631  0.71909643  0.56625835    -0.02760
C1287       C  0.40814113  0.66596855  0.57810207     0.07170
C1288       C  0.43118905  0.63721923  0.60837276    -0.02950
Br1289     Br  0.41486941  0.56947827  0.63581750    -0.01500
Br1290     Br  0.48172550  0.61550481  0.68208215    -0.01570
Br1291     Br  0.37952511  0.77124555  0.05446669    -0.01530
Br1292     Br  0.45799301  0.80253831  0.53506237    -0.01520
C1293       C  0.47737273  0.84777134  0.64303283    -0.02640
C1294       C  0.48520838  0.79201492  0.65463720     0.07040
C1295       C  0.45876669  0.76973343  0.68427318    -0.02760
C1296       C  0.42445777  0.78493860  0.67948929    -0.02760
C1297       C  0.41619115  0.83577725  0.66035808     0.07170
C1298       C  0.44304052  0.86681697  0.64148299    -0.02950
Br1299     Br  0.43263756  0.93411379  0.60880620    -0.01500
Br1300     Br  0.50533383  0.90769542  0.66694375    -0.01570
Br1301     Br  0.39001080  0.73045849  0.68875855    -0.01530
Br1302     Br  0.47122857  0.72134886  0.73436760    -0.01520
C1303       C  0.43607400  0.80570676  0.89804401    -0.02640
C1304       C  0.46572441  0.79957122  0.86263335     0.07040
C1305       C  0.46499248  0.83907205  0.82229210    -0.02760
C1306       C  0.43925335  0.87778998  0.81612529    -0.02760
C1307       C  0.40918536  0.87231368  0.84248208     0.07170
C1308       C  0.40939397  0.84312296  0.88823770    -0.02950
Br1309     Br  0.36957803  0.85266899  0.93222051    -0.01500
Br1310     Br  0.41788292  0.75294778  0.94279056    -0.01570
Br1311     Br  0.44242327  0.93796353  0.76867850    -0.01530
Br1312     Br  0.49309763  0.83955795  0.76776761    -0.01520
C1313       C  0.08994258  0.53219103  0.70939092    -0.02640
C1314       C  0.09548659  0.58423334  0.69031360     0.07040
C1315       C  0.06780458  0.61143421  0.66802028    -0.02760
C1316       C  0.03575444  0.58589612  0.66081082    -0.02760
C1317       C  0.03220236  0.52686019  0.66425254     0.07170
C1318       C  0.06132488  0.50239243  0.69246653    -0.02950
Br1319     Br  0.07383880  0.92534128  0.69308999    -0.01500
Br1320     Br  0.12422054  0.49511349  0.75174405    -0.01570
Br1321     Br  0.00293398  0.64468831  0.66709336    -0.01530
Br1322     Br  0.07616027  0.67930322  0.63274836    -0.01520
C1323       C  0.10213002  0.94516065  0.58950903    -0.02640
C1324       C  0.10195164  0.89262605  0.57330795     0.07040
C1325       C  0.07022152  0.86820136  0.56602633    -0.02760
C1326       C  0.03880019  0.89557175  0.57896445    -0.02760
C1327       C  0.03766787  0.95200634  0.59577585     0.07170
C1328       C  0.07228265  0.97569732  0.58959665    -0.02950
Br1329     Br  0.08590697  0.04902740  0.57665501    -0.01500
Br1330     Br  0.14450451  0.97349076  0.61914580    -0.01570
Br1331     Br  0.00131974  0.85025223  0.56280126    -0.01530
Br1332     Br  0.07114486  0.79588211  0.03826761    -0.01520
C1333       C  0.06978801  0.57851626  0.90526111    -0.02640
C1334       C  0.04159634  0.56299942  0.86912646     0.07040
C1335       C  0.04588030  0.58659217  0.82007876    -0.02760
C1336       C  0.07330828  0.62071518  0.80804370    -0.02760
C1337       C  0.10351378  0.61700776  0.83705455     0.07170
C1338       C  0.10224779  0.59410454  0.88607751    -0.02950
Br1339     Br  0.14176392  0.61164684  0.93045538    -0.01500
Br1340     Br  0.06395280  0.62380327  0.96500213    -0.01570
Br1341     Br  0.06541536  0.68554311  0.77024990    -0.01530
Br1342     Br  0.01320663  0.57609186  0.77233537    -0.01520
C1343       C  0.05691225  0.96961185  0.93894443    -0.02640
C1344       C  0.03897594  0.97352631  0.89209932     0.07040
C1345       C  0.05451954  0.94536490  0.84915908    -0.02760
C1346       C  0.08328839  0.91092523  0.85673531    -0.02760
C1347       C  0.10241997  0.91530642  0.90340690     0.07170
C1348       C  0.09049931  0.95130426  0.94119191    -0.02950
Br1349     Br  0.12247003  0.99755839  0.47439938    -0.01500
Br1350     Br  0.03914168  0.00500166  0.99357482    -0.01570
Br1351     Br  0.09707808  0.85900267  0.80515716    -0.01530
Br1352     Br  0.03077414  0.94364031  0.78509084    -0.01520
C1353       C  0.94344434  0.48567872  0.58312542    -0.02640
C1354       C  0.97666385  0.51211851  0.59054352     0.07040
C1355       C  0.97332881  0.56796978  0.57911886    -0.02760
C1356       C  0.94150588  0.59618151  0.57898849    -0.02760
C1357       C  0.91007219  0.56918104  0.58359373     0.07170
C1358       C  0.91153773  0.51312437  0.58360480    -0.02950
Br1359     Br  0.86909368  0.47108710  0.58510317    -0.01500
Br1360     Br  0.93580117  0.91084103  0.57394927    -0.01570
Br1361     Br  0.94218390  0.67377483  0.57787643    -0.01530
Br1362     Br  0.00887803  0.60760913  0.54952137    -0.01520
C1363       C  0.92905317  0.52867889  0.95607985    -0.02640
C1364       C  0.91857250  0.58255601  0.94848939     0.07040
C1365       C  0.94435053  0.62072123  0.94062846    -0.02760
C1366       C  0.97761393  0.60403703  0.92505313    -0.02760
C1367       C  0.98726517  0.54774312  0.92604285     0.07170
C1368       C  0.96361085  0.51462994  0.95336020    -0.02950
Br1369     Br  0.97401377  0.94235714  0.97137865    -0.01500
Br1370     Br  0.89695044  0.46871564  0.96082008    -0.01570
Br1371     Br  0.00215076  0.66158297  0.89099408    -0.01530
Br1372     Br  0.93306191  0.69626770  0.94226620    -0.01520
C1373       C  0.92139667  0.96512196  0.70221119    -0.02640
C1374       C  0.91533791  0.91079296  0.69456362     0.07040
C1375       C  0.94421460  0.87729762  0.68770012    -0.02760
C1376       C  0.97756519  0.89902317  0.67927745    -0.02760
C1377       C  0.98257299  0.95582262  0.67221148     0.07170
C1378       C  0.95433662  0.98620926  0.69417482    -0.02950
Br1379     Br  0.95213138  0.56063237  0.69678481    -0.01500
Br1380     Br  0.88295517  0.01418038  0.71609166    -0.01570
Br1381     Br  0.01308913  0.84707339  0.69031225    -0.01530
Br1382     Br  0.93757939  0.80122857  0.67781825    -0.01520
C1383       C  0.91514469  0.98873578  0.83943322    -0.02640
C1384       C  0.91200883  0.93225132  0.83956969     0.07040
C1385       C  0.94198186  0.90287523  0.83992120    -0.02760
C1386       C  0.97338837  0.92740304  0.85410759    -0.02760
C1387       C  0.97886330  0.98690872  0.85169454     0.07170
C1388       C  0.94738879  0.01449085  0.83687825    -0.02950
Br1389     Br  0.94229765  0.58968830  0.82099129    -0.01500
Br1390     Br  0.87399498  0.03327040  0.84729710    -0.01570
Br1391     Br  0.00319843  0.86955918  0.88174793    -0.01530
Br1392     Br  0.93982586  0.82747495  0.82083718    -0.01520
loop_ 
_geom_bond_atom_site_label_1 
_geom_bond_atom_site_label_2 
_geom_bond_distance 
_geom_bond_site_symmetry_2 
_ccdc_geom_bond_type 
C1           C12   1.563       .  S
C1           C34   1.557       .  S
C1          C158   1.559       .  S
C1          C181   1.564       .  S
C2           C13   1.567       .  S
C2           C35   1.567       .  S
C2          C164   1.565       .  S
C2          C187   1.569       .  S
Fe3          O19   2.126       .  S
Fe3           O9   2.060       .  S
Fe3          O16   2.087       .  S
Fe3           O8   2.081       .  S
Fe3          O14   1.930       .  S
Fe4           O7   2.088       .  S
Fe4          O11   2.082       .  S
Fe4          O15   2.189       .  S
Fe4          O20   1.946       .  S
Fe4          O14   1.927       .  S
Fe5          O23   2.055       .  S
Fe5          O10   2.139       .  S
Fe5          O17   2.184       .  S
Fe5           O6   2.142       .  S
Fe5          O14   2.020       .  S
O6           C13   1.273       .  A
O7           C21   1.276       .  A
O8           C13   1.276       .  A
O9           C12   1.277       .  A
O10          C22   1.286       .  A
O11          C24   1.259       .  A
C12          O17   1.294       .  A
O15          C18   1.299       .  A
O16          C18   1.276       .  A
C18         C838   1.584       .  S
O19          C24   1.277       .  A
O20          C22   1.237       .  A
C21          O23   1.260       .  A
C21         C330   1.511       .  S
C22         C340   1.509       .  S
C24         C861   1.565       .  S
Fe25         O41   2.111       .  S
Fe25         O31   2.072       .  S
Fe25        O386   2.113   1_554  S
Fe25        O378   2.071   1_554  S
Fe25        O384   1.923       .  S
Fe26         O37   2.175       .  S
Fe26         O42   1.998       .  S
Fe26        O377   2.068       .  S
Fe26        O381   2.088       .  S
Fe26         O36   1.929       .  S
Fe27         O32   2.086       .  S
Fe27         O28   2.170       .  S
Fe27        O393   2.097       .  S
Fe27        O387   2.148       .  S
Fe27         O36   2.020       .  S
O28          C35   1.286       .  A
O29        Fe374   2.068       .  S
O29          C43   1.264       .  A
O30        Fe373   2.071       .  S
O30          C35   1.273       .  A
O31          C34   1.280       .  A
O32          C44   1.276       .  A
O33        Fe374   2.088       .  S
O33          C46   1.266       .  A
C34          O39   1.279       .  A
O36        Fe373   1.923       .  S
O37          C40   1.293       .  A
O38        Fe373   2.113       .  S
O38          C40   1.283       .  A
O39        Fe375   2.148       .  S
C40         C142   1.584   1_545  S
O41          C46   1.271       .  A
O42          C44   1.251       .  A
C43          O45   1.270       .  A
C43         C313   1.524       .  S
C44         C320   1.509       .  S
O45        Fe375   2.097       .  S
C46         C165   1.565   1_545  S
C47         C290   1.666       .  S
C47         C323   1.619   1_455  S
C47         C996   1.596   1_545  S
C47        C1039   1.690   1_445  S
Fe48         O64   2.088   1_556  S
Fe48         O54   2.081   1_556  S
Fe48        O409   2.116       .  S
Fe48        O401   2.060       .  S
Fe48        O407   1.918       .  S
Fe49         O52   2.010   1_556  S
Fe49         O56   2.161   1_556  S
Fe49        O408   2.094       .  S
Fe49        O413   2.054       .  S
Fe49        O407   1.927       .  S
Fe50         O68   2.099   1_556  S
Fe50         O62   2.164   1_556  S
Fe50        O403   2.139       .  S
Fe50        O399   2.165       .  S
Fe50        O407   2.017       .  S
O51        Fe398   2.165       .  S
O51          C58   1.285       .  A
O52          C66   1.253       .  A
O53        Fe396   2.060       .  S
O53          C58   1.274       .  A
O54          C57   1.275       .  A
O55        Fe398   2.139       .  S
O55          C67   1.281       .  A
O56          C69   1.282       .  A
C57          C93   1.565       .  S
C57          O62   1.291       .  A
C58          C92   1.564       .  S
O59        Fe396   1.918       .  S
O59        Fe397   1.927       .  S
O59        Fe398   2.017       .  S
O60        Fe397   2.094       .  S
O60          C63   1.272       .  A
O61        Fe396   2.116       .  S
O61          C63   1.279       .  A
C63         C835   1.558       .  S
O64          C69   1.276       .  A
O65        Fe397   2.054       .  S
O65          C67   1.261       .  A
C66          O68   1.266       .  A
C66         C280   1.496       .  S
C67         C303   1.498       .  S
C69         C836   1.574       .  S
Fe70         O86   2.094       .  S
Fe70         O76   2.082       .  S
Fe70         O83   2.102       .  S
Fe70         O75   2.063       .  S
Fe70         O81   1.925       .  S
Fe71         O74   2.014       .  S
Fe71         O78   2.159       .  S
Fe71         O82   2.117       .  S
Fe71         O87   2.081       .  S
Fe71         O81   1.941       .  S
Fe72         O90   2.102       .  S
Fe72         O77   2.059       .  S
Fe72         O84   2.167       .  S
Fe72         O73   2.148       .  S
Fe72         O81   2.013       .  S
O73          C80   1.288       .  A
O74          C88   1.253       .  A
O75          C80   1.269       .  A
O76          C79   1.279       .  A
O77          C89   1.268       .  A
O78          C91   1.288       .  A
C79          C93   1.574       .  S
C79          O84   1.282       .  A
C80          C92   1.552       .  S
O82          C85   1.270       .  A
O83          C85   1.280       .  A
C85         C139   1.563   1_545  S
O86          C91   1.272       .  A
O87          C89   1.265       .  A
C88          O90   1.275       .  A
C88         C270   1.502       .  S
C89         C293   1.475       .  S
C91         C140   1.577   1_545  S
C92         C116   1.561       .  S
C92         C138   1.573       .  S
C93         C110   1.586       .  S
C93         C132   1.574       .  S
C94         C273   1.662   1_565  S
C94         C310   1.678   1_465  S
C94         C979   1.697       .  S
C94        C1029   1.656   1_455  S
Fe95        O111   2.079       .  S
Fe95        O101   2.084       .  S
Fe95        O108   2.116       .  S
Fe95        O100   2.070       .  S
Fe95        O106   1.915       .  S
Fe96         O99   2.093       .  S
Fe96        O103   2.148       .  S
Fe96        O107   2.148       .  S
Fe96        O112   2.043       .  S
Fe96        O106   1.938       .  S
Fe97        O115   2.047       .  S
Fe97        O102   2.129       .  S
Fe97        O109   2.140       .  S
Fe97         O98   2.153       .  S
Fe97        O106   1.998       .  S
O98         C105   1.282       .  A
O99         C113   1.278       .  A
O100        C105   1.277       .  A
O101        C104   1.273       .  A
O102        C114   1.278       .  A
O103        C116   1.280       .  A
C104        C835   1.562       .  S
C104        O109   1.285       .  A
C105        C836   1.561       .  S
O107        C110   1.284       .  A
O108        C110   1.278       .  A
O111        C116   1.276       .  A
O112        C114   1.255       .  A
C113        O115   1.263       .  A
C113        C263   1.476       .  S
C114        C253   1.503       .  S
Fe117       O133   2.100       .  S
Fe117       O123   2.081       .  S
Fe117       O478   2.110       .  S
Fe117       O470   2.077       .  S
Fe117       O476   1.906       .  S
Fe118       O129   2.138   1_556  S
Fe118       O134   2.016   1_556  S
Fe118       O469   2.111       .  S
Fe118       O473   2.146       .  S
Fe118       O128   1.929       .  S
Fe119       O124   2.116   1_556  S
Fe119       O120   2.148   1_556  S
Fe119       O485   2.056       .  S
Fe119       O479   2.157       .  S
Fe119       O128   1.989       .  S
O120        C127   1.278       .  A
O121       Fe466   2.111       .  S
O121        C135   1.281       .  A
O122       Fe465   2.077   1_554  S
O122        C127   1.278       .  A
O123        C126   1.276       .  A
O124        C136   1.278       .  A
O125       Fe466   2.146       .  S
O125        C138   1.281       .  A
C126        C139   1.560   1_545  S
C126        O131   1.292       .  A
C127        C140   1.566   1_545  S
O128       Fe465   1.906       .  S
O129        C132   1.285       .  A
O130       Fe465   2.110   1_554  S
O130        C132   1.273       .  A
O131       Fe467   2.157       .  S
O133        C138   1.282       .  A
O134        C136   1.247       .  A
C135        O137   1.265       .  A
C135        C230   1.490       .  S
C136        C243   1.485       .  S
O137       Fe467   2.056       .  S
C139        C759   1.558       .  S
C139        C800   1.562       .  S
C140        C765   1.574       .  S
C140        C801   1.561       .  S
C141        C210   1.686       .  S
C141        C220   1.644       .  S
C141        C233   1.639       .  S
C141        C260   1.649       .  S
C142        C152   1.579   1_565  S
C142        C714   1.584       .  S
C142        C871   1.581       .  S
Fe143       O159   2.113       .  S
Fe143       O149   2.065       .  S
Fe143       O156   2.106       .  S
Fe143       O148   2.079       .  S
Fe143       O154   1.927       .  S
Fe144       O147   2.018       .  S
Fe144       O151   2.125       .  S
Fe144       O155   2.094       .  S
Fe144       O160   2.048       .  S
Fe144       O154   1.936       .  S
Fe145       O163   2.137       .  S
Fe145       O150   2.056       .  S
Fe145       O157   2.192       .  S
Fe145       O146   2.164       .  S
Fe145       O154   2.028       .  S
O146        C153   1.285       .  A
O147        C161   1.247       .  A
O148        C153   1.279       .  A
O149        C152   1.273       .  A
O150        C162   1.267       .  A
O151        C164   1.282       .  A
C152        O157   1.290       .  A
C153        C165   1.566   1_545  S
O155        C158   1.267       .  A
O156        C158   1.273       .  A
O159        C164   1.282       .  A
O160        C162   1.256       .  A
C161        O163   1.284       .  A
C161        C213   1.544       .  S
C162        C200   1.486       .  S
C165        C720   1.565       .  S
C165        C872   1.566       .  S
Fe166       O182   2.092       .  S
Fe166       O172   2.087       .  S
Fe166       O527   2.122       .  S
Fe166       O519   2.052       .  S
Fe166       O525   1.928       .  S
Fe167       O178   2.066       .  S
Fe167       O183   2.059       .  S
Fe167       O518   2.004   1_554  S
Fe167       O522   2.169   1_554  S
Fe167       O177   1.936       .  S
Fe168       O173   2.057       .  S
Fe168       O169   2.182       .  S
Fe168       O534   2.155   1_554  S
Fe168       O528   2.177   1_554  S
Fe168       O177   2.008       .  S
O169        C176   1.290       .  A
O170       Fe515   2.004       .  S
O170        C184   1.248       .  A
O171       Fe514   2.052       .  S
O171        C176   1.274       .  A
O172        C175   1.277       .  A
O173        C185   1.266       .  A
O174       Fe515   2.169       .  S
O174        C187   1.296       .  A
C175        C838   1.581       .  S
C175        O180   1.285       .  A
C176        C861   1.566       .  S
O177       Fe514   1.928       .  S
O178        C181   1.259       .  A
O179       Fe514   2.122       .  S
O179        C181   1.273       .  A
O180       Fe516   2.177       .  S
O182        C187   1.281       .  A
O183        C185   1.262       .  A
C184        O186   1.292       .  A
C184        C223   1.537       .  S
C185        C190   1.490       .  S
O186       Fe516   2.155       .  S
C188        C193   1.677       .  S
C188        C203   1.612       .  S
C188        C240   1.642       .  S
C188        C250   1.664       .  S
C189        C190   1.397       .  A
C189        C194   1.415       .  A
C189       Br196   1.979       .  S
C190        C191   1.398       .  A
C191        C192   1.422       .  A
C191       Br198   1.942       .  S
C192        C193   1.457       .  A
C192       Br197   1.924       .  S
C193        C194   1.462       .  A
C194       Br195   1.872       .  S
C199        C200   1.398       .  A
C199        C204   1.424       .  A
C199       Br206   1.946       .  S
C200        C201   1.402       .  A
C201        C202   1.403       .  A
C201       Br208   1.970       .  S
C202        C203   1.435       .  A
C202       Br207   1.889       .  S
C203        C204   1.488       .  A
C204       Br205   2.014       .  S
C209        C210   1.483       .  A
C209        C214   1.438       .  A
C209       Br216   1.971       .  S
C210        C211   1.488       .  A
C211        C212   1.441       .  A
C211       Br218   1.954       .  S
C212        C213   1.409       .  A
C212       Br217   1.954       .  S
C213        C214   1.427       .  A
C214       Br215   1.978       .  S
C219        C220   1.473       .  A
C219        C224   1.446       .  A
C219       Br226   1.953       .  S
C220        C221   1.461       .  A
C221        C222   1.432       .  A
C221       Br228   1.983       .  S
C222        C223   1.429       .  A
C222       Br227   1.967       .  S
C223        C224   1.410       .  A
C224       Br225   1.952       .  S
C229        C230   1.391       .  A
C229        C234   1.422       .  A
C229       Br584   1.927       .  S
C230        C231   1.369       .  A
C231        C232   1.410       .  A
C231       Br238   1.940       .  S
C232        C233   1.481       .  A
C232       Br237   1.910       .  S
C233        C234   1.437       .  A
C234       Br235   1.855       .  S
Br236       C577   1.927       .  S
C239        C240   1.501       .  A
C239        C244   1.424       .  A
C239       Br246   1.985       .  S
C240        C241   1.434       .  A
C241        C242   1.405       .  A
C241       Br248   1.897       .  S
C242        C243   1.403       .  A
C242       Br595   1.955       .  S
C243        C244   1.385       .  A
C244       Br245   1.954       .  S
Br247       C590   1.955       .  S
C249        C250   1.465       .  A
C249        C254   1.430       .  A
C249       Br256   1.954       .  S
C250        C251   1.406       .  A
C251        C252   1.404       .  A
C251       Br258   1.825       .  S
C252        C253   1.405       .  A
C252       Br257   1.943       .  S
C253        C254   1.402       .  A
C254       Br255   1.928       .  S
C259        C260   1.484       .  A
C259        C264   1.427       .  A
C259       Br266   1.894       .  S
C260        C261   1.429       .  A
C261        C262   1.410       .  A
C261       Br268   1.776       .  S
C262        C263   1.369       .  A
C262       Br267   1.942       .  S
C263        C264   1.375       .  A
C264       Br265   1.942       .  S
C269        C270   1.415       .  A
C269        C274   1.413       .  A
C269       Br276   1.952   1_545  S
C270        C271   1.399       .  A
C271        C272   1.423       .  A
C271       Br278   1.959       .  S
C272        C273   1.493       .  A
C272       Br277   1.965       .  S
C273        C274   1.477       .  A
C274       Br971   1.997   1_545  S
Br275       C970   1.997       .  S
C279        C280   1.380       .  A
C279        C284   1.400       .  A
C279       Br286   1.952       .  S
C280        C281   1.400       .  A
C281        C282   1.451       .  A
C281       Br636   1.945       .  S
C282        C283   1.479       .  A
C282       Br287   1.902       .  S
C283        C790   1.697       .  S
C283        C284   1.495       .  A
C284       Br285   1.950       .  S
Br288       C629   1.945       .  S
C289        C290   1.480       .  A
C289        C294   1.425       .  A
C289       Br296   1.902       .  S
C290        C291   1.391       .  A
C291        C292   1.414       .  A
C291       Br298   1.773       .  S
C292        C293   1.392       .  A
C292       Br297   1.917       .  S
C293        C294   1.373       .  A
C294       Br295   1.956       .  S
C299        C300   1.378       .  A
C299        C304   1.397       .  A
C299       Br306   1.787       .  S
C300        C743   1.596       .  S
C300        C301   1.434       .  A
C301        C302   1.434       .  A
C301       Br308   1.863       .  S
C302        C303   1.398       .  A
C302       Br307   1.921       .  S
C303        C304   1.396       .  A
C304       Br653   1.899       .  S
Br305       C652   1.899       .  S
C309        C310   1.475   1_565  A
C309        C314   1.429   1_565  A
C309      Br1012   1.917       .  S
C310        C311   1.440       .  A
C311        C312   1.435       .  A
C311       Br318   1.880   1_655  S
C312        C313   1.415       .  A
C312       Br317   1.950       .  S
C313        C314   1.409       .  A
C314       Br315   1.975   1_545  S
Br316      C1005   1.917       .  S
C319        C320   1.428       .  A
C319        C324   1.404       .  A
C319       Br326   1.971   1_545  S
C320        C321   1.412       .  A
C321        C322   1.429       .  A
C321       Br328   1.949       .  S
C322        C323   1.464       .  A
C322       Br327   1.949   1_655  S
C323        C324   1.434       .  A
C324      Br1021   1.917   1_545  S
Br325      C1020   1.917       .  S
C329        C330   1.398       .  A
C329        C334   1.415       .  A
C329       Br336   1.980       .  S
C330        C331   1.422       .  A
C331        C332   1.438       .  A
C331       Br338   1.944       .  S
C332        C333   1.453       .  A
C332       Br337   1.928   1_655  S
C333        C790   1.656   1_655  S
C333        C334   1.458       .  A
C334      Br1031   1.872       .  S
Br335      C1030   1.872   1_545  S
C339        C340   1.425       .  A
C339        C344   1.425       .  A
C339       Br346   1.975       .  S
C340        C341   1.388       .  A
C341        C342   1.421       .  A
C341       Br348   1.954       .  S
C342        C343   1.512       .  A
C342       Br347   1.991   1_655  S
C343        C743   1.690   1_655  S
C343        C344   1.463       .  A
C344      Br1041   1.943       .  S
Br345      C1040   1.943       .  S
C349        C360   1.563       .  S
C349        C382   1.557       .  S
C349        C506   1.559       .  S
C349        C529   1.564       .  S
C350        C361   1.567       .  S
C350        C383   1.567       .  S
C350        C512   1.565       .  S
C350        C535   1.569       .  S
Fe351       O367   2.126       .  S
Fe351       O357   2.060       .  S
Fe351       O364   2.087       .  S
Fe351       O356   2.081       .  S
Fe351       O362   1.930       .  S
Fe352       O355   2.088       .  S
Fe352       O359   2.082       .  S
Fe352       O363   2.189       .  S
Fe352       O368   1.946       .  S
Fe352       O362   1.927       .  S
Fe353       O371   2.055       .  S
Fe353       O358   2.139       .  S
Fe353       O365   2.184       .  S
Fe353       O354   2.142       .  S
Fe353       O362   2.020       .  S
O354        C361   1.273       .  A
O355        C369   1.276       .  A
O356        C361   1.276       .  A
O357        C360   1.277       .  A
O358        C370   1.286       .  A
O359        C372   1.259       .  A
C360        O365   1.294       .  A
O363        C366   1.299       .  A
O364        C366   1.276       .  A
C366       C1186   1.584       .  S
O367        C372   1.277       .  A
O368        C370   1.237       .  A
C369        O371   1.260       .  A
C369        C678   1.511       .  S
C370        C688   1.509       .  S
C372       C1209   1.565       .  S
Fe373       O389   2.111       .  S
Fe373       O379   2.072       .  S
Fe374       O385   2.175   1_554  S
Fe374       O390   1.998   1_554  S
Fe374       O384   1.929       .  S
Fe375       O380   2.086   1_554  S
Fe375       O376   2.170   1_554  S
Fe375       O384   2.020       .  S
O376        C383   1.286       .  A
O377        C391   1.264       .  A
O378        C383   1.273       .  A
O379        C382   1.280       .  A
O380        C392   1.276       .  A
O381        C394   1.266       .  A
C382        O387   1.279       .  A
O385        C388   1.293       .  A
O386        C388   1.283       .  A
C388        C490   1.584   1_545  S
O389        C394   1.271       .  A
O390        C392   1.251       .  A
C391        O393   1.270       .  A
C391        C661   1.524       .  S
C392        C668   1.509       .  S
C394        C513   1.565   1_545  S
C395        C638   1.666       .  S
C395       C1344   1.596   1_545  S
C395        C671   1.619   1_455  S
C395       C1387   1.690   1_445  S
Fe396       O412   2.088       .  S
Fe396       O402   2.081       .  S
Fe397       O400   2.010       .  S
Fe397       O404   2.161       .  S
Fe398       O416   2.099       .  S
Fe398       O410   2.164       .  S
O399        C406   1.285       .  A
O400        C414   1.253       .  A
O401        C406   1.274       .  A
O402        C405   1.275       .  A
O403        C415   1.281       .  A
O404        C417   1.282       .  A
C405        C441   1.565       .  S
C405        O410   1.291       .  A
C406        C440   1.564       .  S
O408        C411   1.272       .  A
O409        C411   1.279       .  A
C411       C1183   1.558       .  S
O412        C417   1.276       .  A
O413        C415   1.261       .  A
C414        O416   1.266       .  A
C414        C628   1.496       .  S
C415        C651   1.498       .  S
C417       C1184   1.574       .  S
Fe418       O434   2.094       .  S
Fe418       O424   2.082       .  S
Fe418       O431   2.102       .  S
Fe418       O423   2.063       .  S
Fe418       O429   1.925       .  S
Fe419       O422   2.014       .  S
Fe419       O426   2.159       .  S
Fe419       O430   2.117       .  S
Fe419       O435   2.081       .  S
Fe419       O429   1.941       .  S
Fe420       O438   2.102       .  S
Fe420       O425   2.059       .  S
Fe420       O432   2.167       .  S
Fe420       O421   2.148       .  S
Fe420       O429   2.013       .  S
O421        C428   1.288       .  A
O422        C436   1.253       .  A
O423        C428   1.269       .  A
O424        C427   1.279       .  A
O425        C437   1.268       .  A
O426        C439   1.288       .  A
C427        C441   1.574       .  S
C427        O432   1.282       .  A
C428        C440   1.552       .  S
O430        C433   1.270       .  A
O431        C433   1.280       .  A
C433        C487   1.563   1_545  S
O434        C439   1.272       .  A
O435        C437   1.265       .  A
C436        O438   1.275       .  A
C436        C618   1.502       .  S
C437        C641   1.475       .  S
C439        C488   1.577   1_545  S
C440        C464   1.561       .  S
C440        C486   1.573       .  S
C441        C458   1.586       .  S
C441        C480   1.574       .  S
C442        C621   1.662   1_565  S
C442       C1327   1.697       .  S
C442        C658   1.678   1_465  S
C442       C1377   1.656   1_455  S
Fe443       O459   2.079       .  S
Fe443       O449   2.084       .  S
Fe443       O456   2.116       .  S
Fe443       O448   2.070       .  S
Fe443       O454   1.915       .  S
Fe444       O447   2.093       .  S
Fe444       O451   2.148       .  S
Fe444       O455   2.148       .  S
Fe444       O460   2.043       .  S
Fe444       O454   1.938       .  S
Fe445       O463   2.047       .  S
Fe445       O450   2.129       .  S
Fe445       O457   2.140       .  S
Fe445       O446   2.153       .  S
Fe445       O454   1.998       .  S
O446        C453   1.282       .  A
O447        C461   1.278       .  A
O448        C453   1.277       .  A
O449        C452   1.273       .  A
O450        C462   1.278       .  A
O451        C464   1.280       .  A
C452       C1183   1.562       .  S
C452        O457   1.285       .  A
C453       C1184   1.561       .  S
O455        C458   1.284       .  A
O456        C458   1.278       .  A
O459        C464   1.276       .  A
O460        C462   1.255       .  A
C461        O463   1.263       .  A
C461        C611   1.476       .  S
C462        C601   1.503       .  S
Fe465       O481   2.100       .  S
Fe465       O471   2.081       .  S
Fe466       O477   2.138       .  S
Fe466       O482   2.016       .  S
Fe466       O476   1.929       .  S
Fe467       O472   2.116       .  S
Fe467       O468   2.148       .  S
Fe467       O476   1.989       .  S
O468        C475   1.278       .  A
O469        C483   1.281       .  A
O470        C475   1.278       .  A
O471        C474   1.276       .  A
O472        C484   1.278       .  A
O473        C486   1.281       .  A
C474        C487   1.560   1_545  S
C474        O479   1.292       .  A
C475        C488   1.566   1_545  S
O477        C480   1.285       .  A
O478        C480   1.273       .  A
O481        C486   1.282       .  A
O482        C484   1.247       .  A
C483        O485   1.265       .  A
C483        C578   1.490       .  S
C484        C591   1.485       .  S
C487       C1107   1.558       .  S
C487       C1148   1.562       .  S
C488       C1113   1.574       .  S
C488       C1149   1.561       .  S
C489        C558   1.686       .  S
C489        C568   1.644       .  S
C489        C581   1.639       .  S
C489        C608   1.649       .  S
C490       C1062   1.584       .  S
C490        C500   1.579   1_565  S
C490       C1219   1.581       .  S
Fe491       O507   2.113       .  S
Fe491       O497   2.065       .  S
Fe491       O504   2.106       .  S
Fe491       O496   2.079       .  S
Fe491       O502   1.927       .  S
Fe492       O495   2.018       .  S
Fe492       O499   2.125       .  S
Fe492       O503   2.094       .  S
Fe492       O508   2.048       .  S
Fe492       O502   1.936       .  S
Fe493       O511   2.137       .  S
Fe493       O498   2.056       .  S
Fe493       O505   2.192       .  S
Fe493       O494   2.164       .  S
Fe493       O502   2.028       .  S
O494        C501   1.285       .  A
O495        C509   1.247       .  A
O496        C501   1.279       .  A
O497        C500   1.273       .  A
O498        C510   1.267       .  A
O499        C512   1.282       .  A
C500        O505   1.290       .  A
C501        C513   1.566   1_545  S
O503        C506   1.267       .  A
O504        C506   1.273       .  A
O507        C512   1.282       .  A
O508        C510   1.256       .  A
C509        O511   1.284       .  A
C509        C561   1.544       .  S
C510        C548   1.486       .  S
C513       C1068   1.565       .  S
C513       C1220   1.566       .  S
Fe514       O530   2.092   1_554  S
Fe514       O520   2.087   1_554  S
Fe515       O526   2.066       .  S
Fe515       O531   2.059       .  S
Fe515       O525   1.936       .  S
Fe516       O521   2.057       .  S
Fe516       O517   2.182       .  S
Fe516       O525   2.008       .  S
O517        C524   1.290       .  A
O518        C532   1.248       .  A
O519        C524   1.274       .  A
O520        C523   1.277       .  A
O521        C533   1.266       .  A
O522        C535   1.296       .  A
C523       C1186   1.581       .  S
C523        O528   1.285       .  A
C524       C1209   1.566       .  S
O526        C529   1.259       .  A
O527        C529   1.273       .  A
O530        C535   1.281       .  A
O531        C533   1.262       .  A
C532        O534   1.292       .  A
C532        C571   1.537       .  S
C533        C538   1.490       .  S
C536        C541   1.677       .  S
C536        C551   1.612       .  S
C536        C588   1.642       .  S
C536        C598   1.664       .  S
C537        C538   1.397       .  A
C537        C542   1.415       .  A
C537       Br544   1.979       .  S
C538        C539   1.398       .  A
C539        C540   1.422       .  A
C539       Br546   1.942       .  S
C540        C541   1.457       .  A
C540       Br545   1.924       .  S
C541        C542   1.462       .  A
C542       Br543   1.872       .  S
C547        C548   1.398       .  A
C547        C552   1.424       .  A
C547       Br554   1.946       .  S
C548        C549   1.402       .  A
C549        C550   1.403       .  A
C549       Br556   1.970       .  S
C550        C551   1.435       .  A
C550       Br555   1.889       .  S
C551        C552   1.488       .  A
C552       Br553   2.014       .  S
C557        C558   1.483       .  A
C557        C562   1.438       .  A
C557       Br564   1.971       .  S
C558        C559   1.488       .  A
C559        C560   1.441       .  A
C559       Br566   1.954       .  S
C560        C561   1.409       .  A
C560       Br565   1.954       .  S
C561        C562   1.427       .  A
C562       Br563   1.978       .  S
C567        C568   1.473       .  A
C567        C572   1.446       .  A
C567       Br574   1.953       .  S
C568        C569   1.461       .  A
C569        C570   1.432       .  A
C569       Br576   1.983       .  S
C570        C571   1.429       .  A
C570       Br575   1.967       .  S
C571        C572   1.410       .  A
C572       Br573   1.952       .  S
C577        C578   1.391       .  A
C577        C582   1.422       .  A
C578        C579   1.369       .  A
C579        C580   1.410       .  A
C579       Br586   1.940       .  S
C580        C581   1.481       .  A
C580       Br585   1.910       .  S
C581        C582   1.437       .  A
C582       Br583   1.855       .  S
C587        C588   1.501       .  A
C587        C592   1.424       .  A
C587       Br594   1.985       .  S
C588        C589   1.434       .  A
C589        C590   1.405       .  A
C589       Br596   1.897       .  S
C590        C591   1.403       .  A
C591        C592   1.385       .  A
C592       Br593   1.954       .  S
C597        C598   1.465       .  A
C597        C602   1.430       .  A
C597       Br604   1.954       .  S
C598        C599   1.406       .  A
C599        C600   1.404       .  A
C599       Br606   1.825       .  S
C600        C601   1.405       .  A
C600       Br605   1.943       .  S
C601        C602   1.402       .  A
C602       Br603   1.928       .  S
C607        C608   1.484       .  A
C607        C612   1.427       .  A
C607       Br614   1.894       .  S
C608        C609   1.429       .  A
C609        C610   1.410       .  A
C609       Br616   1.776       .  S
C610        C611   1.369       .  A
C610       Br615   1.942       .  S
C611        C612   1.375       .  A
C612       Br613   1.942       .  S
C617        C618   1.415       .  A
C617        C622   1.413       .  A
C617       Br624   1.952   1_545  S
C618        C619   1.399       .  A
C619        C620   1.423       .  A
C619       Br626   1.959       .  S
C620        C621   1.493       .  A
C620       Br625   1.965       .  S
C621        C622   1.477       .  A
C622      Br1319   1.996   1_545  S
Br623      C1318   1.996       .  S
C627        C628   1.380       .  A
C627        C632   1.400       .  A
C627       Br634   1.952       .  S
C628        C629   1.400       .  A
C629        C630   1.451       .  A
C630        C631   1.479       .  A
C630       Br635   1.902       .  S
C631       C1138   1.697       .  S
C631        C632   1.495       .  A
C632       Br633   1.950       .  S
C637        C638   1.480       .  A
C637        C642   1.425       .  A
C637       Br644   1.902       .  S
C638        C639   1.391       .  A
C639        C640   1.414       .  A
C639       Br646   1.773       .  S
C640        C641   1.392       .  A
C640       Br645   1.917       .  S
C641        C642   1.373       .  A
C642       Br643   1.956       .  S
C647        C648   1.378       .  A
C647        C652   1.397       .  A
C647       Br654   1.787       .  S
C648       C1091   1.596       .  S
C648        C649   1.434       .  A
C649        C650   1.434       .  A
C649       Br656   1.863       .  S
C650        C651   1.398       .  A
C650       Br655   1.921       .  S
C651        C652   1.396       .  A
C657        C658   1.475   1_565  A
C657        C662   1.429   1_565  A
C657      Br1360   1.917       .  S
C658        C659   1.440       .  A
C659        C660   1.435       .  A
C659       Br666   1.880   1_655  S
C660        C661   1.415       .  A
C660       Br665   1.950       .  S
C661        C662   1.409       .  A
C662       Br663   1.975   1_545  S
Br664      C1353   1.917       .  S
C667        C668   1.428       .  A
C667        C672   1.404       .  A
C667       Br674   1.971   1_545  S
C668        C669   1.412       .  A
C669        C670   1.429       .  A
C669       Br676   1.949       .  S
C670        C671   1.464       .  A
C670       Br675   1.949   1_655  S
C671        C672   1.434       .  A
C672      Br1369   1.917   1_545  S
Br673      C1368   1.917       .  S
C677        C678   1.398       .  A
C677        C682   1.415       .  A
C677       Br684   1.980       .  S
C678        C679   1.422       .  A
C679        C680   1.438       .  A
C679       Br686   1.944       .  S
C680        C681   1.453       .  A
C680       Br685   1.928   1_655  S
C681       C1138   1.656   1_655  S
C681        C682   1.458       .  A
C682      Br1379   1.872       .  S
Br683      C1378   1.872   1_545  S
C687        C688   1.425       .  A
C687        C692   1.425       .  A
C687       Br694   1.975       .  S
C688        C689   1.388       .  A
C689        C690   1.421       .  A
C689       Br696   1.954       .  S
C690        C691   1.512       .  A
C690       Br695   1.991   1_655  S
C691       C1091   1.690   1_655  S
C691        C692   1.463       .  A
C692      Br1389   1.943       .  S
Br693      C1388   1.943       .  S
C697        C708   1.563       .  S
C697        C730   1.557       .  S
C697        C854   1.559       .  S
C697        C877   1.564       .  S
C698        C709   1.567       .  S
C698        C731   1.567       .  S
C698        C860   1.565       .  S
C698        C883   1.569       .  S
Fe699       O715   2.126       .  S
Fe699       O705   2.060       .  S
Fe699       O712   2.087       .  S
Fe699       O704   2.081       .  S
Fe699       O710   1.930       .  S
Fe700       O703   2.088       .  S
Fe700       O707   2.083       .  S
Fe700       O711   2.189       .  S
Fe700       O716   1.946       .  S
Fe700       O710   1.927       .  S
Fe701       O719   2.055       .  S
Fe701       O706   2.139       .  S
Fe701       O713   2.184       .  S
Fe701       O702   2.142       .  S
Fe701       O710   2.020       .  S
O702        C709   1.273       .  A
O703        C717   1.276       .  A
O704        C709   1.276       .  A
O705        C708   1.277       .  A
O706        C718   1.286       .  A
O707        C720   1.259       .  A
C708        O713   1.294       .  A
O711        C714   1.299       .  A
O712        C714   1.276       .  A
O715        C720   1.277       .  A
O716        C718   1.237       .  A
C717        O719   1.260       .  A
C717       C1026   1.511       .  S
C718       C1036   1.509       .  S
Fe721       O737   2.111       .  S
Fe721       O727   2.072       .  S
Fe721      O1082   2.113   1_554  S
Fe721      O1074   2.071   1_554  S
Fe721      O1080   1.923       .  S
Fe722      O1073   2.068       .  S
Fe722      O1077   2.088       .  S
Fe722       O733   2.175       .  S
Fe722       O738   1.998       .  S
Fe722       O732   1.929       .  S
Fe723      O1089   2.097       .  S
Fe723       O728   2.086       .  S
Fe723      O1083   2.148       .  S
Fe723       O724   2.170       .  S
Fe723       O732   2.020       .  S
O724        C731   1.286       .  A
O725      Fe1070   2.068       .  S
O725        C739   1.264       .  A
O726      Fe1069   2.071       .  S
O726        C731   1.273       .  A
O727        C730   1.280       .  A
O728        C740   1.276       .  A
O729      Fe1070   2.088       .  S
O729        C742   1.266       .  A
C730        O735   1.279       .  A
O732      Fe1069   1.923       .  S
O733        C736   1.293       .  A
O734      Fe1069   2.113       .  S
O734        C736   1.283       .  A
O735      Fe1071   2.148       .  S
C736        C838   1.584       .  S
O737        C742   1.271       .  A
O738        C740   1.251       .  A
C739        O741   1.270       .  A
C739       C1009   1.524       .  S
C740       C1016   1.509       .  S
O741      Fe1071   2.097       .  S
C742        C861   1.565       .  S
C743        C986   1.666       .  S
C743       C1019   1.619   1_455  S
Fe744       O760   2.088   1_556  S
Fe744       O750   2.081   1_556  S
Fe744      O1105   2.116       .  S
Fe744      O1097   2.060       .  S
Fe744      O1103   1.918       .  S
Fe745       O748   2.010   1_556  S
Fe745       O752   2.161   1_556  S
Fe745      O1104   2.094       .  S
Fe745      O1109   2.054       .  S
Fe745      O1103   1.927       .  S
Fe746       O764   2.099   1_556  S
Fe746      O1099   2.139       .  S
Fe746       O758   2.164   1_556  S
Fe746      O1095   2.165       .  S
Fe746      O1103   2.017       .  S
O747      Fe1094   2.165       .  S
O747        C754   1.285       .  A
O748        C762   1.253       .  A
O749      Fe1092   2.060       .  S
O749        C754   1.274       .  A
O750        C753   1.275       .  A
O751      Fe1094   2.139       .  S
O751        C763   1.281       .  A
O752        C765   1.282       .  A
C753        C789   1.565       .  S
C753        O758   1.291       .  A
C754        C788   1.564       .  S
O755      Fe1092   1.918       .  S
O755      Fe1093   1.927       .  S
O755      Fe1094   2.017       .  S
O756      Fe1093   2.094       .  S
O756        C759   1.272       .  A
O757      Fe1092   2.116       .  S
O757        C759   1.279       .  A
O760        C765   1.276       .  A
O761      Fe1093   2.054       .  S
O761        C763   1.261       .  A
C762        O764   1.266       .  A
C762        C976   1.496       .  S
C763        C999   1.498       .  S
Fe766       O782   2.094       .  S
Fe766       O772   2.082       .  S
Fe766       O779   2.102       .  S
Fe766       O771   2.063       .  S
Fe766       O777   1.925       .  S
Fe767       O770   2.014       .  S
Fe767       O774   2.159       .  S
Fe767       O778   2.117       .  S
Fe767       O783   2.081       .  S
Fe767       O777   1.941       .  S
Fe768       O786   2.102       .  S
Fe768       O773   2.059       .  S
Fe768       O780   2.167       .  S
Fe768       O769   2.148       .  S
Fe768       O777   2.013       .  S
O769        C776   1.288       .  A
O770        C784   1.253       .  A
O771        C776   1.269       .  A
O772        C775   1.279       .  A
O773        C785   1.268       .  A
O774        C787   1.288       .  A
C775        C789   1.574       .  S
C775        O780   1.282       .  A
C776        C788   1.552       .  S
O778        C781   1.270       .  A
O779        C781   1.280       .  A
C781        C835   1.563       .  S
O782        C787   1.272       .  A
O783        C785   1.265       .  A
C784        O786   1.275       .  A
C784        C966   1.502       .  S
C785        C989   1.475       .  S
C787        C836   1.577       .  S
C788        C812   1.561       .  S
C788        C834   1.573       .  S
C789        C806   1.586       .  S
C789        C828   1.574       .  S
C790        C969   1.662       .  S
C790       C1006   1.678   1_455  S
Fe791       O807   2.079       .  S
Fe791       O797   2.084       .  S
Fe791       O804   2.116       .  S
Fe791       O796   2.070       .  S
Fe791       O802   1.915       .  S
Fe792       O795   2.093       .  S
Fe792       O799   2.148       .  S
Fe792       O803   2.148       .  S
Fe792       O808   2.043       .  S
Fe792       O802   1.938       .  S
Fe793       O811   2.047       .  S
Fe793       O798   2.129       .  S
Fe793       O805   2.140       .  S
Fe793       O794   2.153       .  S
Fe793       O802   1.998       .  S
O794        C801   1.282       .  A
O795        C809   1.278       .  A
O796        C801   1.277       .  A
O797        C800   1.273       .  A
O798        C810   1.278       .  A
O799        C812   1.280       .  A
C800        O805   1.285       .  A
O803        C806   1.284       .  A
O804        C806   1.278       .  A
O807        C812   1.276       .  A
O808        C810   1.255       .  A
C809        O811   1.263       .  A
C809        C959   1.476       .  S
C810        C949   1.503       .  S
Fe813       O829   2.100       .  S
Fe813       O819   2.081       .  S
Fe813      O1174   2.110       .  S
Fe813      O1166   2.077       .  S
Fe813      O1172   1.906       .  S
Fe814      O1165   2.111       .  S
Fe814      O1169   2.146       .  S
Fe814       O825   2.138   1_556  S
Fe814       O830   2.016   1_556  S
Fe814       O824   1.929       .  S
Fe815      O1181   2.056       .  S
Fe815       O820   2.116   1_556  S
Fe815      O1175   2.157       .  S
Fe815       O816   2.148   1_556  S
Fe815       O824   1.989       .  S
O816        C823   1.278       .  A
O817      Fe1162   2.111       .  S
O817        C831   1.281       .  A
O818      Fe1161   2.077   1_554  S
O818        C823   1.278       .  A
O819        C822   1.276       .  A
O820        C832   1.278       .  A
O821      Fe1162   2.146       .  S
O821        C834   1.281       .  A
C822        C835   1.560       .  S
C822        O827   1.292       .  A
C823        C836   1.566       .  S
O824      Fe1161   1.906       .  S
O825        C828   1.285       .  A
O826      Fe1161   2.110   1_554  S
O826        C828   1.273       .  A
O827      Fe1163   2.157       .  S
O829        C834   1.282       .  A
O830        C832   1.247       .  A
C831        O833   1.265       .  A
C831        C926   1.490       .  S
C832        C939   1.485       .  S
O833      Fe1163   2.056       .  S
C837        C906   1.686       .  S
C837        C916   1.644       .  S
C837        C929   1.639       .  S
C837        C956   1.649       .  S
C838        C848   1.579       .  S
Fe839       O855   2.113       .  S
Fe839       O845   2.065       .  S
Fe839       O852   2.106       .  S
Fe839       O844   2.079       .  S
Fe839       O850   1.927       .  S
Fe840       O843   2.018       .  S
Fe840       O847   2.125       .  S
Fe840       O851   2.094       .  S
Fe840       O856   2.048       .  S
Fe840       O850   1.936       .  S
Fe841       O859   2.137       .  S
Fe841       O846   2.056       .  S
Fe841       O853   2.192       .  S
Fe841       O842   2.164       .  S
Fe841       O850   2.028       .  S
O842        C849   1.285       .  A
O843        C857   1.247       .  A
O844        C849   1.279       .  A
O845        C848   1.273       .  A
O846        C858   1.267       .  A
O847        C860   1.282       .  A
C848        O853   1.290       .  A
C849        C861   1.566       .  S
O851        C854   1.267       .  A
O852        C854   1.273       .  A
O855        C860   1.282       .  A
O856        C858   1.256       .  A
C857        O859   1.284       .  A
C857        C909   1.544       .  S
C858        C896   1.486       .  S
Fe862       O878   2.092       .  S
Fe862       O868   2.087       .  S
Fe862      O1223   2.122       .  S
Fe862      O1215   2.052       .  S
Fe862      O1221   1.928       .  S
Fe863      O1214   2.004   1_554  S
Fe863      O1218   2.169   1_554  S
Fe863       O874   2.066       .  S
Fe863       O879   2.059       .  S
Fe863       O873   1.936       .  S
Fe864      O1230   2.155   1_554  S
Fe864       O869   2.057       .  S
Fe864      O1224   2.177   1_554  S
Fe864       O865   2.182       .  S
Fe864       O873   2.008       .  S
O865        C872   1.290       .  A
O866      Fe1211   2.004       .  S
O866        C880   1.248       .  A
O867      Fe1210   2.052       .  S
O867        C872   1.274       .  A
O868        C871   1.277       .  A
O869        C881   1.266       .  A
O870      Fe1211   2.169       .  S
O870        C883   1.296       .  A
C871        O876   1.285       .  A
O873      Fe1210   1.928       .  S
O874        C877   1.259       .  A
O875      Fe1210   2.122       .  S
O875        C877   1.273       .  A
O876      Fe1212   2.177       .  S
O878        C883   1.281       .  A
O879        C881   1.262       .  A
C880        O882   1.292       .  A
C880        C919   1.537       .  S
C881        C886   1.490       .  S
O882      Fe1212   2.155       .  S
C884        C889   1.677       .  S
C884        C899   1.612       .  S
C884        C936   1.642       .  S
C884        C946   1.664       .  S
C885        C886   1.397       .  A
C885        C890   1.415       .  A
C885       Br892   1.979       .  S
C886        C887   1.398       .  A
C887        C888   1.422       .  A
C887       Br894   1.942       .  S
C888        C889   1.457       .  A
C888       Br893   1.924       .  S
C889        C890   1.462       .  A
C890       Br891   1.872       .  S
C895        C896   1.398       .  A
C895        C900   1.424       .  A
C895       Br902   1.946       .  S
C896        C897   1.402       .  A
C897        C898   1.403       .  A
C897       Br904   1.970       .  S
C898        C899   1.435       .  A
C898       Br903   1.889       .  S
C899        C900   1.488       .  A
C900       Br901   2.014       .  S
C905        C906   1.483       .  A
C905        C910   1.438       .  A
C905       Br912   1.971       .  S
C906        C907   1.488       .  A
C907        C908   1.441       .  A
C907       Br914   1.954       .  S
C908        C909   1.409       .  A
C908       Br913   1.954       .  S
C909        C910   1.427       .  A
C910       Br911   1.978       .  S
C915        C916   1.473       .  A
C915        C920   1.446       .  A
C915       Br922   1.953       .  S
C916        C917   1.461       .  A
C917        C918   1.432       .  A
C917       Br924   1.983       .  S
C918        C919   1.429       .  A
C918       Br923   1.967       .  S
C919        C920   1.410       .  A
C920       Br921   1.952       .  S
C925        C926   1.391       .  A
C925        C930   1.422       .  A
C925      Br1280   1.927       .  S
C926        C927   1.369       .  A
C927        C928   1.410       .  A
C927       Br934   1.940       .  S
C928        C929   1.481       .  A
C928       Br933   1.910       .  S
C929        C930   1.437       .  A
C930       Br931   1.855       .  S
Br932      C1273   1.927       .  S
C935        C936   1.501       .  A
C935        C940   1.424       .  A
C935       Br942   1.985       .  S
C936        C937   1.434       .  A
C937        C938   1.405       .  A
C937       Br944   1.897       .  S
C938        C939   1.403       .  A
C938      Br1291   1.955       .  S
C939        C940   1.385       .  A
C940       Br941   1.954       .  S
Br943      C1286   1.955       .  S
C945        C946   1.465       .  A
C945        C950   1.430       .  A
C945       Br952   1.954       .  S
C946        C947   1.406       .  A
C947        C948   1.404       .  A
C947       Br954   1.825       .  S
C948        C949   1.405       .  A
C948       Br953   1.943       .  S
C949        C950   1.402       .  A
C950       Br951   1.928       .  S
C955        C956   1.484       .  A
C955        C960   1.427       .  A
C955       Br962   1.894       .  S
C956        C957   1.429       .  A
C957        C958   1.410       .  A
C957       Br964   1.776       .  S
C958        C959   1.369       .  A
C958       Br963   1.942       .  S
C959        C960   1.375       .  A
C960       Br961   1.942       .  S
C965        C966   1.415       .  A
C965        C970   1.413       .  A
C965       Br972   1.952       .  S
C966        C967   1.399       .  A
C967        C968   1.423       .  A
C967       Br974   1.959       .  S
C968        C969   1.493       .  A
C968       Br973   1.965       .  S
C969        C970   1.477       .  A
C975        C976   1.380       .  A
C975        C980   1.400       .  A
C975       Br982   1.952       .  S
C976        C977   1.400       .  A
C977        C978   1.451       .  A
C977      Br1332   1.945       .  S
C978        C979   1.479       .  A
C978       Br983   1.902       .  S
C979        C980   1.495       .  A
C980       Br981   1.950   1_565  S
Br984      C1325   1.945       .  S
C985        C986   1.480       .  A
C985        C990   1.425       .  A
C985       Br992   1.902       .  S
C986        C987   1.391       .  A
C987        C988   1.414       .  A
C987       Br994   1.773       .  S
C988        C989   1.392       .  A
C988       Br993   1.917       .  S
C989        C990   1.373       .  A
C990       Br991   1.956       .  S
C995        C996   1.378       .  A
C995       C1000   1.397       .  A
C995      Br1002   1.787   1_565  S
C996        C997   1.434       .  A
C997        C998   1.434       .  A
C997      Br1004   1.863       .  S
C998        C999   1.398       .  A
C998      Br1003   1.921       .  S
C999       C1000   1.396       .  A
C1000     Br1349   1.899       .  S
Br1001     C1348   1.899       .  S
C1005      C1006   1.475       .  A
C1005      C1010   1.429       .  A
C1006      C1007   1.440       .  A
C1007      C1008   1.435       .  A
C1007     Br1014   1.880   1_655  S
C1008      C1009   1.415       .  A
C1008     Br1013   1.950       .  S
C1009      C1010   1.409       .  A
C1010     Br1011   1.975       .  S
C1015      C1016   1.428       .  A
C1015      C1020   1.404       .  A
C1015     Br1022   1.971       .  S
C1016      C1017   1.412       .  A
C1017      C1018   1.429       .  A
C1017     Br1024   1.949       .  S
C1018      C1019   1.464       .  A
C1018     Br1023   1.949   1_655  S
C1019      C1020   1.434       .  A
C1025      C1026   1.398       .  A
C1025      C1030   1.415       .  A
C1025     Br1032   1.980   1_565  S
C1026      C1027   1.422       .  A
C1027      C1028   1.438       .  A
C1027     Br1034   1.944       .  S
C1028      C1029   1.453       .  A
C1028     Br1033   1.928   1_655  S
C1029      C1030   1.458       .  A
C1035      C1036   1.425       .  A
C1035      C1040   1.425   1_565  A
C1035     Br1042   1.975   1_565  S
C1036      C1037   1.388       .  A
C1037      C1038   1.421       .  A
C1037     Br1044   1.954       .  S
C1038      C1039   1.512       .  A
C1038     Br1043   1.991   1_655  S
C1039      C1040   1.463   1_565  A
C1045      C1056   1.563       .  S
C1045      C1078   1.557       .  S
C1045      C1202   1.559       .  S
C1045      C1225   1.564       .  S
C1046      C1057   1.567       .  S
C1046      C1079   1.567       .  S
C1046      C1208   1.565       .  S
C1046      C1231   1.569       .  S
Fe1047     O1063   2.126       .  S
Fe1047     O1053   2.060       .  S
Fe1047     O1060   2.087       .  S
Fe1047     O1052   2.081       .  S
Fe1047     O1058   1.930       .  S
Fe1048     O1051   2.088       .  S
Fe1048     O1055   2.083       .  S
Fe1048     O1059   2.189       .  S
Fe1048     O1064   1.946       .  S
Fe1048     O1058   1.927       .  S
Fe1049     O1067   2.055       .  S
Fe1049     O1054   2.139       .  S
Fe1049     O1061   2.184       .  S
Fe1049     O1050   2.142       .  S
Fe1049     O1058   2.020       .  S
O1050      C1057   1.273       .  A
O1051      C1065   1.276       .  A
O1052      C1057   1.276       .  A
O1053      C1056   1.277       .  A
O1054      C1066   1.286       .  A
O1055      C1068   1.259       .  A
C1056      O1061   1.294       .  A
O1059      C1062   1.299       .  A
O1060      C1062   1.276       .  A
O1063      C1068   1.277       .  A
O1064      C1066   1.237       .  A
C1065      O1067   1.260       .  A
C1065      C1374   1.511       .  S
C1066      C1384   1.509       .  S
Fe1069     O1085   2.111       .  S
Fe1069     O1075   2.072       .  S
Fe1070     O1081   2.175   1_554  S
Fe1070     O1086   1.998   1_554  S
Fe1070     O1080   1.929       .  S
Fe1071     O1076   2.086   1_554  S
Fe1071     O1072   2.170   1_554  S
Fe1071     O1080   2.020       .  S
O1072      C1079   1.286       .  A
O1073      C1087   1.264       .  A
O1074      C1079   1.273       .  A
O1075      C1078   1.280       .  A
O1076      C1088   1.276       .  A
O1077      C1090   1.266       .  A
C1078      O1083   1.279       .  A
O1081      C1084   1.293       .  A
O1082      C1084   1.283       .  A
C1084      C1186   1.584       .  S
O1085      C1090   1.271       .  A
O1086      C1088   1.251       .  A
C1087      O1089   1.270       .  A
C1087      C1357   1.524       .  S
C1088      C1364   1.509       .  S
C1090      C1209   1.565       .  S
C1091      C1334   1.666       .  S
C1091      C1367   1.619   1_455  S
Fe1092     O1108   2.088       .  S
Fe1092     O1098   2.081       .  S
Fe1093     O1096   2.010       .  S
Fe1093     O1100   2.161       .  S
Fe1094     O1112   2.099       .  S
Fe1094     O1106   2.164       .  S
O1095      C1102   1.285       .  A
O1096      C1110   1.253       .  A
O1097      C1102   1.274       .  A
O1098      C1101   1.275       .  A
O1099      C1111   1.281       .  A
O1100      C1113   1.282       .  A
C1101      C1137   1.565       .  S
C1101      O1106   1.291       .  A
C1102      C1136   1.564       .  S
O1104      C1107   1.272       .  A
O1105      C1107   1.279       .  A
O1108      C1113   1.276       .  A
O1109      C1111   1.261       .  A
C1110      O1112   1.266       .  A
C1110      C1324   1.496       .  S
C1111      C1347   1.498       .  S
Fe1114     O1130   2.094       .  S
Fe1114     O1120   2.082       .  S
Fe1114     O1127   2.102       .  S
Fe1114     O1119   2.063       .  S
Fe1114     O1125   1.925       .  S
Fe1115     O1118   2.014       .  S
Fe1115     O1122   2.159       .  S
Fe1115     O1126   2.117       .  S
Fe1115     O1131   2.081       .  S
Fe1115     O1125   1.941       .  S
Fe1116     O1134   2.102       .  S
Fe1116     O1121   2.059       .  S
Fe1116     O1128   2.167       .  S
Fe1116     O1117   2.148       .  S
Fe1116     O1125   2.013       .  S
O1117      C1124   1.288       .  A
O1118      C1132   1.253       .  A
O1119      C1124   1.269       .  A
O1120      C1123   1.279       .  A
O1121      C1133   1.268       .  A
O1122      C1135   1.288       .  A
C1123      C1137   1.574       .  S
C1123      O1128   1.282       .  A
C1124      C1136   1.552       .  S
O1126      C1129   1.270       .  A
O1127      C1129   1.280       .  A
C1129      C1183   1.563       .  S
O1130      C1135   1.272       .  A
O1131      C1133   1.265       .  A
C1132      O1134   1.275       .  A
C1132      C1314   1.502       .  S
C1133      C1337   1.475       .  S
C1135      C1184   1.577       .  S
C1136      C1160   1.561       .  S
C1136      C1182   1.573       .  S
C1137      C1154   1.586       .  S
C1137      C1176   1.574       .  S
C1138      C1317   1.662       .  S
C1138      C1354   1.678   1_455  S
Fe1139     O1155   2.079       .  S
Fe1139     O1145   2.084       .  S
Fe1139     O1152   2.116       .  S
Fe1139     O1144   2.070       .  S
Fe1139     O1150   1.915       .  S
Fe1140     O1143   2.093       .  S
Fe1140     O1147   2.148       .  S
Fe1140     O1151   2.148       .  S
Fe1140     O1156   2.043       .  S
Fe1140     O1150   1.938       .  S
Fe1141     O1159   2.047       .  S
Fe1141     O1146   2.129       .  S
Fe1141     O1153   2.140       .  S
Fe1141     O1142   2.153       .  S
Fe1141     O1150   1.998       .  S
O1142      C1149   1.282       .  A
O1143      C1157   1.278       .  A
O1144      C1149   1.277       .  A
O1145      C1148   1.273       .  A
O1146      C1158   1.278       .  A
O1147      C1160   1.280       .  A
C1148      O1153   1.285       .  A
O1151      C1154   1.284       .  A
O1152      C1154   1.278       .  A
O1155      C1160   1.276       .  A
O1156      C1158   1.255       .  A
C1157      O1159   1.263       .  A
C1157      C1307   1.476       .  S
C1158      C1297   1.503       .  S
Fe1161     O1177   2.100       .  S
Fe1161     O1167   2.081       .  S
Fe1162     O1173   2.138       .  S
Fe1162     O1178   2.016       .  S
Fe1162     O1172   1.929       .  S
Fe1163     O1168   2.116       .  S
Fe1163     O1164   2.148       .  S
Fe1163     O1172   1.989       .  S
O1164      C1171   1.278       .  A
O1165      C1179   1.281       .  A
O1166      C1171   1.278       .  A
O1167      C1170   1.276       .  A
O1168      C1180   1.278       .  A
O1169      C1182   1.281       .  A
C1170      C1183   1.560       .  S
C1170      O1175   1.292       .  A
C1171      C1184   1.566       .  S
O1173      C1176   1.285       .  A
O1174      C1176   1.273       .  A
O1177      C1182   1.282       .  A
O1178      C1180   1.247       .  A
C1179      O1181   1.265       .  A
C1179      C1274   1.490       .  S
C1180      C1287   1.485       .  S
C1185      C1254   1.686       .  S
C1185      C1264   1.644       .  S
C1185      C1277   1.639       .  S
C1185      C1304   1.649       .  S
C1186      C1196   1.579       .  S
Fe1187     O1203   2.113       .  S
Fe1187     O1193   2.065       .  S
Fe1187     O1200   2.106       .  S
Fe1187     O1192   2.079       .  S
Fe1187     O1198   1.927       .  S
Fe1188     O1191   2.018       .  S
Fe1188     O1195   2.125       .  S
Fe1188     O1199   2.094       .  S
Fe1188     O1204   2.048       .  S
Fe1188     O1198   1.936       .  S
Fe1189     O1207   2.137       .  S
Fe1189     O1194   2.056       .  S
Fe1189     O1201   2.192       .  S
Fe1189     O1190   2.164       .  S
Fe1189     O1198   2.028       .  S
O1190      C1197   1.285       .  A
O1191      C1205   1.247       .  A
O1192      C1197   1.279       .  A
O1193      C1196   1.273       .  A
O1194      C1206   1.267       .  A
O1195      C1208   1.282       .  A
C1196      O1201   1.290       .  A
C1197      C1209   1.566       .  S
O1199      C1202   1.267       .  A
O1200      C1202   1.273       .  A
O1203      C1208   1.282       .  A
O1204      C1206   1.256       .  A
C1205      O1207   1.284       .  A
C1205      C1257   1.544       .  S
C1206      C1244   1.486       .  S
Fe1210     O1226   2.092   1_554  S
Fe1210     O1216   2.087   1_554  S
Fe1211     O1222   2.066       .  S
Fe1211     O1227   2.059       .  S
Fe1211     O1221   1.936       .  S
Fe1212     O1217   2.057       .  S
Fe1212     O1213   2.182       .  S
Fe1212     O1221   2.008       .  S
O1213      C1220   1.290       .  A
O1214      C1228   1.248       .  A
O1215      C1220   1.274       .  A
O1216      C1219   1.277       .  A
O1217      C1229   1.266       .  A
O1218      C1231   1.296       .  A
C1219      O1224   1.285       .  A
O1222      C1225   1.259       .  A
O1223      C1225   1.273       .  A
O1226      C1231   1.281       .  A
O1227      C1229   1.262       .  A
C1228      O1230   1.292       .  A
C1228      C1267   1.537       .  S
C1229      C1234   1.490       .  S
C1232      C1237   1.677       .  S
C1232      C1247   1.612       .  S
C1232      C1284   1.642       .  S
C1232      C1294   1.664       .  S
C1233      C1234   1.397       .  A
C1233      C1238   1.415       .  A
C1233     Br1240   1.979       .  S
C1234      C1235   1.398       .  A
C1235      C1236   1.422       .  A
C1235     Br1242   1.942       .  S
C1236      C1237   1.457       .  A
C1236     Br1241   1.923       .  S
C1237      C1238   1.462       .  A
C1238     Br1239   1.872       .  S
C1243      C1244   1.398       .  A
C1243      C1248   1.424       .  A
C1243     Br1250   1.946       .  S
C1244      C1245   1.402       .  A
C1245      C1246   1.403       .  A
C1245     Br1252   1.970       .  S
C1246      C1247   1.435       .  A
C1246     Br1251   1.889       .  S
C1247      C1248   1.488       .  A
C1248     Br1249   2.014       .  S
C1253      C1254   1.483       .  A
C1253      C1258   1.438       .  A
C1253     Br1260   1.971       .  S
C1254      C1255   1.488       .  A
C1255      C1256   1.441       .  A
C1255     Br1262   1.954       .  S
C1256      C1257   1.409       .  A
C1256     Br1261   1.954       .  S
C1257      C1258   1.427       .  A
C1258     Br1259   1.978       .  S
C1263      C1264   1.473       .  A
C1263      C1268   1.446       .  A
C1263     Br1270   1.953       .  S
C1264      C1265   1.461       .  A
C1265      C1266   1.432       .  A
C1265     Br1272   1.983       .  S
C1266      C1267   1.429       .  A
C1266     Br1271   1.967       .  S
C1267      C1268   1.410       .  A
C1268     Br1269   1.952       .  S
C1273      C1274   1.391       .  A
C1273      C1278   1.422       .  A
C1274      C1275   1.369       .  A
C1275      C1276   1.410       .  A
C1275     Br1282   1.940       .  S
C1276      C1277   1.481       .  A
C1276     Br1281   1.910       .  S
C1277      C1278   1.437       .  A
C1278     Br1279   1.855       .  S
C1283      C1284   1.501       .  A
C1283      C1288   1.424       .  A
C1283     Br1290   1.985       .  S
C1284      C1285   1.434       .  A
C1285      C1286   1.405       .  A
C1285     Br1292   1.897       .  S
C1286      C1287   1.403       .  A
C1287      C1288   1.385       .  A
C1288     Br1289   1.954       .  S
C1293      C1294   1.465       .  A
C1293      C1298   1.430       .  A
C1293     Br1300   1.954       .  S
C1294      C1295   1.406       .  A
C1295      C1296   1.404       .  A
C1295     Br1302   1.825       .  S
C1296      C1297   1.405       .  A
C1296     Br1301   1.943       .  S
C1297      C1298   1.402       .  A
C1298     Br1299   1.928       .  S
C1303      C1304   1.484       .  A
C1303      C1308   1.427       .  A
C1303     Br1310   1.894       .  S
C1304      C1305   1.429       .  A
C1305      C1306   1.410       .  A
C1305     Br1312   1.776       .  S
C1306      C1307   1.369       .  A
C1306     Br1311   1.942       .  S
C1307      C1308   1.375       .  A
C1308     Br1309   1.942       .  S
C1313      C1314   1.415       .  A
C1313      C1318   1.413       .  A
C1313     Br1320   1.952       .  S
C1314      C1315   1.399       .  A
C1315      C1316   1.423       .  A
C1315     Br1322   1.959       .  S
C1316      C1317   1.493       .  A
C1316     Br1321   1.965       .  S
C1317      C1318   1.477       .  A
C1323      C1324   1.380       .  A
C1323      C1328   1.400       .  A
C1323     Br1330   1.952       .  S
C1324      C1325   1.400       .  A
C1325      C1326   1.451       .  A
C1326      C1327   1.479       .  A
C1326     Br1331   1.902       .  S
C1327      C1328   1.495       .  A
C1328     Br1329   1.950   1_565  S
C1333      C1334   1.480       .  A
C1333      C1338   1.425       .  A
C1333     Br1340   1.902       .  S
C1334      C1335   1.391       .  A
C1335      C1336   1.414       .  A
C1335     Br1342   1.773       .  S
C1336      C1337   1.392       .  A
C1336     Br1341   1.917       .  S
C1337      C1338   1.373       .  A
C1338     Br1339   1.956       .  S
C1343      C1344   1.378       .  A
C1343      C1348   1.397       .  A
C1343     Br1350   1.787   1_565  S
C1344      C1345   1.434       .  A
C1345      C1346   1.434       .  A
C1345     Br1352   1.863       .  S
C1346      C1347   1.398       .  A
C1346     Br1351   1.921       .  S
C1347      C1348   1.396       .  A
C1353      C1354   1.475       .  A
C1353      C1358   1.429       .  A
C1354      C1355   1.440       .  A
C1355      C1356   1.435       .  A
C1355     Br1362   1.880   1_655  S
C1356      C1357   1.415       .  A
C1356     Br1361   1.950       .  S
C1357      C1358   1.409       .  A
C1358     Br1359   1.975       .  S
C1363      C1364   1.428       .  A
C1363      C1368   1.404       .  A
C1363     Br1370   1.971       .  S
C1364      C1365   1.412       .  A
C1365      C1366   1.429       .  A
C1365     Br1372   1.949       .  S
C1366      C1367   1.464       .  A
C1366     Br1371   1.949   1_655  S
C1367      C1368   1.434       .  A
C1373      C1374   1.398       .  A
C1373      C1378   1.415       .  A
C1373     Br1380   1.980   1_565  S
C1374      C1375   1.422       .  A
C1375      C1376   1.438       .  A
C1375     Br1382   1.944       .  S
C1376      C1377   1.453       .  A
C1376     Br1381   1.928   1_655  S
C1377      C1378   1.458       .  A
C1383      C1384   1.425       .  A
C1383      C1388   1.425   1_565  A
C1383     Br1390   1.975   1_565  S
C1384      C1385   1.388       .  A
C1385      C1386   1.421       .  A
C1385     Br1392   1.954       .  S
C1386      C1387   1.512       .  A
C1386     Br1391   1.991   1_655  S
C1387      C1388   1.463   1_565  A
