geometry optimzed in LAMMPS
_audit_creation_date              2020-11-30 
_audit_creation_method            'lammps2cif' 
_symmetry_space_group_name_H-M    'P1' 
_symmetry_Int_Tables_number       1 
_symmetry_cell_setting            triclinic 
loop_ 
_symmetry_equiv_pos_as_xyz 
  x,y,z 
_cell_length_a                    36.2525859 
_cell_length_b                    36.68925399250997 
_cell_length_c                    37.02414559139257 
_cell_angle_alpha                 90.03825247516043 
_cell_angle_beta                  90.61779216925181 
_cell_angle_gamma                 90.4144406435893 
loop_ 
_atom_site_label 
_atom_site_type_symbol 
_atom_site_fract_x 
_atom_site_fract_y 
_atom_site_fract_z 
_atom_site_charge 
C1          C  0.68602402  0.10618988  0.65497618     0.88000
C2          C  0.69206469  0.06603337  0.66612058    -0.52200
C3          C  0.66102378  0.04852391  0.67860611     0.10900
C4          C  0.62717127  0.07389239  0.68013770     0.21900
C5          C  0.65383008  0.10429470  0.62800848    -0.53000
C6          C  0.62298257  0.08822287  0.64138445     0.11000
C7          C  0.67013897  0.12462199  0.68883364    -0.52500
C8          C  0.63897302  0.10786296  0.70204651     0.11600
H9          H  0.71791511  0.05230156  0.66133363     0.16100
H10         H  0.60183862  0.06031166  0.69033396     0.01900
H11         H  0.65484155  0.11585515  0.60101955     0.16400
H12         H  0.68244864  0.14889659  0.70074801     0.16200
C13         C  0.70144314  0.88478492  0.65038865     0.88000
C14         C  0.68287578  0.86714392  0.68352287    -0.52200
C15         C  0.65278690  0.88579512  0.69604235     0.10900
C16         C  0.64495470  0.92112939  0.67493250     0.21900
C17         C  0.66944208  0.88923965  0.62277330    -0.53000
C18         C  0.63966761  0.90728124  0.63603139     0.11000
C19         C  0.71057810  0.92398649  0.66225420    -0.52500
C20         C  0.68130249  0.94364753  0.67442331     0.11600
H21         H  0.69187826  0.84140999  0.69493174     0.16100
H22         H  0.62092648  0.93623418  0.68532650     0.01900
H23         H  0.66843639  0.87716783  0.59610603     0.16400
H24         H  0.73790228  0.93590892  0.65921666     0.16200
C25         C  0.25734688  0.08952728  0.66731480     0.88000
C26         C  0.26758107  0.11109525  0.70154028    -0.52200
C27         C  0.29986868  0.10062188  0.71779467     0.10900
C28         C  0.31796414  0.06747848  0.69909959     0.21900
C29         C  0.29146851  0.09168591  0.64360719    -0.53000
C30         C  0.32330079  0.08126395  0.66044168     0.11000
C31         C  0.25592763  0.04926337  0.67943552    -0.52500
C32         C  0.28800087  0.03676299  0.69549977     0.11600
H33         H  0.25222359  0.13477864  0.71029153     0.16100
H34         H  0.34399406  0.05850447  0.71234088     0.01900
H35         H  0.29017871  0.10140798  0.61597361     0.16400
H36         H  0.23252027  0.03190676  0.67278854     0.16200
C37         C  0.26373421  0.86853150  0.66891593     0.88000
C38         C  0.25284534  0.90833567  0.67526648    -0.52200
C39         C  0.27777544  0.92888979  0.69469769     0.10900
C40         C  0.31178754  0.90614642  0.70752484     0.21900
C41         C  0.30242814  0.87071975  0.65231506    -0.53000
C42         C  0.32744268  0.89006999  0.67275101     0.11000
C43         C  0.27045666  0.85313126  0.70679195    -0.52500
C44         C  0.29645264  0.87153514  0.72680707     0.11600
H45         H  0.22769260  0.91975346  0.66390468     0.16100
H46         H  0.33238028  0.92173700  0.72384042     0.01900
H47         H  0.31021868  0.85773684  0.62728930     0.16400
H48         H  0.25842849  0.82744439  0.71555858     0.16200
In49       In  0.47263864  0.87854523  0.58497635     1.36900
C50         C  0.45405705  0.93992015  0.55158798     0.79100
O51         O  0.43647770  0.89793920  0.62911301    -0.59400
O52         O  0.43280203  0.84209921  0.61354372    -0.50300
C53         C  0.47711190  0.82150813  0.54128793     0.71800
O54         O  0.49710689  0.82478353  0.56914570    -0.45100
C55         C  0.53677185  0.89277696  0.61746425     0.76500
O56         O  0.43054918  0.91873901  0.56495837    -0.57000
O57         O  0.50800182  0.88506827  0.63479584    -0.47100
O58         O  0.48649020  0.92788072  0.55180166    -0.53400
C59         C  0.41974545  0.86784120  0.63191817     0.86600
O60         O  0.45384426  0.84645310  0.53674729    -0.55300
O61         O  0.53280429  0.89270261  0.58363581    -0.58600
In62       In  0.46595031  0.10800366  0.56869802     1.36900
C63         C  0.46665516  0.04079319  0.54227990     0.79100
O64         O  0.52420397  0.09401779  0.57856611    -0.59400
O65         O  0.49382250  0.11468741  0.62290666    -0.50300
C66         C  0.47569860  0.16646273  0.52807295     0.71800
O67         O  0.45969362  0.13797975  0.51680387    -0.45100
C68         C  0.40244235  0.11165604  0.60084021     0.76500
O69         O  0.49113862  0.06400853  0.53506659    -0.57000
O70         O  0.43145697  0.10181746  0.61710817    -0.47100
O71         O  0.43982786  0.05296938  0.55964930    -0.53400
C72         C  0.52392791  0.10220366  0.61159320     0.86600
O73         O  0.48424707  0.16617511  0.56108258    -0.55300
O74         O  0.40637247  0.12189403  0.56856829    -0.58600
C75         C  0.09232126  0.65622103  0.71249482     0.88000
C76         C  0.05296222  0.67235161  0.71330927    -0.52200
C77         C  0.04138320  0.68762220  0.68113391     0.10900
C78         C  0.07131431  0.68603901  0.65161753     0.21900
C79         C  0.09118462  0.62976651  0.68060586    -0.53000
C80         C  0.08095064  0.64529713  0.64873351     0.11000
C81         C  0.11703479  0.68795564  0.70027755    -0.52500
C82         C  0.10669273  0.70346478  0.66815623     0.11600
H83         H  0.03510905  0.66919370  0.73644852     0.16100
H84         H  0.06192621  0.69857144  0.62595186     0.01900
H85         H  0.09941856  0.60141646  0.68274037     0.16400
H86         H  0.14169205  0.69634228  0.71510290     0.16200
C87         C  0.87498252  0.68073847  0.70992692     0.88000
C88         C  0.85940098  0.71784311  0.69880040    -0.52200
C89         C  0.87739136  0.73451055  0.67091919     0.10900
C90         C  0.91196735  0.71300836  0.65837432     0.21900
C91         C  0.87605770  0.65909013  0.67435282    -0.53000
C92         C  0.89498346  0.67628655  0.64742727     0.11000
C93         C  0.91531972  0.68840228  0.71966578    -0.52500
C94         C  0.93557472  0.70417235  0.69291418     0.11600
H95         H  0.83378559  0.72821501  0.70964666     0.16100
H96         H  0.92754264  0.72655016  0.63640685     0.01900
H97         H  0.86196064  0.63334219  0.66987067     0.16400
H98         H  0.92753291  0.67968442  0.74514365     0.16200
C99         C  0.11491088  0.65720434  0.27833710     0.88000
C100        C  0.13419248  0.69090163  0.29490778    -0.52200
C101        C  0.11568271  0.70655171  0.32306555     0.10900
C102        C  0.07824521  0.68777098  0.33081083     0.21900
C103        C  0.10795771  0.63210998  0.31077345    -0.53000
C104        C  0.08933010  0.64827917  0.33794902     0.11000
C105        C  0.07626438  0.67053950  0.26719104    -0.52500
C106        C  0.05616211  0.68551924  0.29462872     0.11600
H107        H  0.16112059  0.70024023  0.28613651     0.16100
H108        H  0.06326357  0.70028939  0.35360941     0.01900
H109        H  0.11857352  0.60481157  0.31401653     0.16400
H110        H  0.06466508  0.66559477  0.24044682     0.16200
C111        C  0.88902622  0.67346662  0.28504752     0.88000
C112        C  0.88486232  0.64751612  0.31735532    -0.52200
C113        C  0.90202329  0.65915642  0.34802674     0.10900
C114        C  0.92271923  0.69559222  0.34415414     0.21900
C115        C  0.87549912  0.71048249  0.29939045    -0.53000
C116        C  0.89281455  0.72201462  0.33065708     0.11000
C117        C  0.93118290  0.67857534  0.28112133    -0.52500
C118        C  0.94923413  0.68989864  0.31214445     0.11600
H119        H  0.86858606  0.62271667  0.31751448     0.16100
H120        H  0.93677965  0.70456772  0.36948309     0.01900
H121        H  0.85376686  0.72570673  0.28599216     0.16400
H122        H  0.94525330  0.67199715  0.25628912     0.16200
In123      In  0.87495359  0.58735629  0.50210343     1.36900
C124        C  0.93974261  0.55521836  0.51001510     0.79100
O125        O  0.88637498  0.59588240  0.44388045    -0.59400
O126        O  0.87455663  0.64266891  0.47524659    -0.50300
C127        C  0.81904275  0.54053265  0.49555151     0.71800
O128        O  0.84794753  0.53389385  0.51341359    -0.45100
C129        C  0.86825937  0.62745897  0.56043785     0.76500
O130        O  0.92405909  0.55874205  0.47972665    -0.57000
O131        O  0.84191489  0.60835937  0.54814865    -0.47100
O132        O  0.92058642  0.56447519  0.53655212    -0.53400
C133        C  0.88360585  0.63005537  0.44498000     0.86600
O134        O  0.81796651  0.57201440  0.48208618    -0.55300
O135        O  0.89701931  0.62770039  0.54161761    -0.58600
In136      In  0.10795600  0.58085634  0.49242409     1.36900
C137        C  0.04062750  0.55182457  0.48860695     0.79100
O138        O  0.10165960  0.58524029  0.55170118    -0.59400
O139        O  0.09854597  0.63382349  0.52002626    -0.50300
C140        C  0.17147351  0.54410857  0.49489155     0.71800
O141        O  0.14083354  0.52969716  0.48723047    -0.45100
C142        C  0.10577146  0.62183784  0.43455630     0.76500
O143        O  0.06037901  0.55640927  0.46127870    -0.57000
O144        O  0.11847212  0.63396088  0.46406911    -0.47100
O145        O  0.05680237  0.55780609  0.51831397    -0.53400
C146        C  0.09682132  0.61932875  0.55083946     0.86600
O147        O  0.16982212  0.57779579  0.50013031    -0.55300
O148        O  0.09618820  0.58878781  0.43475286    -0.58600
C149        C  0.23018694  0.81805439  0.38137154     0.88000
C150        C  0.21881064  0.78260874  0.36217894    -0.52200
C151        C  0.18803864  0.76599643  0.37580525     0.10900
C152        C  0.17252043  0.78552904  0.40953925     0.21900
C153        C  0.19485785  0.84111559  0.38089956    -0.53000
C154        C  0.16490075  0.82377731  0.39510560     0.11000
C155        C  0.23541836  0.80713836  0.42103517    -0.52500
C156        C  0.20542731  0.79077736  0.43652032     0.11600
H157        H  0.23228611  0.77305719  0.33791110     0.16100
H158        H  0.14789764  0.77190164  0.42113219     0.01900
H159        H  0.19243843  0.86812968  0.36948229     0.16400
H160        H  0.26050915  0.81345151  0.43618045     0.16200
C161        C  0.20394567  0.81432326  0.59584429     0.88000
C162        C  0.21061397  0.80173578  0.55672864    -0.52200
C163        C  0.17960338  0.78870920  0.53901959     0.10900
C164        C  0.14517702  0.78815233  0.56352367     0.21900
C165        C  0.17232999  0.84156879  0.59240420    -0.53000
C166        C  0.14123961  0.82758693  0.57640559     0.11000
C167        C  0.18707598  0.78110641  0.61497961    -0.52500
C168        C  0.15564032  0.76767328  0.59863935     0.11600
H169        H  0.23681497  0.80633114  0.54362604     0.16100
H170        H  0.11985120  0.77731648  0.55001539     0.01900
H171        H  0.17442485  0.86921627  0.60265634     0.16400
H172        H  0.19836943  0.77058321  0.64008783     0.16200
C173        C  0.79759351  0.85566278  0.38069503     0.88000
C174        C  0.79640159  0.84353548  0.42043502    -0.52200
C175        C  0.82754324  0.82597658  0.43251004     0.10900
C176        C  0.85703985  0.82189595  0.40247169     0.21900
C177        C  0.83261369  0.87873215  0.37809864    -0.53000
C178        C  0.86375880  0.86115356  0.38877312     0.11000
C179        C  0.80551083  0.82075624  0.35956222    -0.52500
C180        C  0.83674254  0.80295796  0.37028640     0.11600
H181        H  0.77362689  0.85031087  0.43794869     0.16100
H182        H  0.88245708  0.80807716  0.41195745     0.01900
H183        H  0.83290219  0.90644652  0.36773993     0.16400
H184        H  0.78822598  0.81144109  0.33719791     0.16200
C185        C  0.77704751  0.83526892  0.58996226     0.88000
C186        C  0.79593894  0.80390088  0.61047088    -0.52200
C187        C  0.82889826  0.79306845  0.59585007     0.10900
C188        C  0.83885906  0.81413747  0.56082583     0.21900
C189        C  0.80668448  0.86534065  0.58803236    -0.53000
C190        C  0.83921469  0.85399510  0.57367532     0.11000
C191        C  0.77305221  0.82163429  0.55087078    -0.52500
C192        C  0.80516113  0.81187517  0.53465152     0.11600
H193        H  0.78484047  0.79245907  0.63512737     0.16100
H194        H  0.86502724  0.80522131  0.54842316     0.01900
H195        H  0.80295395  0.89257262  0.59889084     0.16400
H196        H  0.74711888  0.82309268  0.53594933     0.16200
In197      In  0.02698814  0.92140091  0.36485052     1.36900
C198        C  0.03412639  0.95123699  0.42964050     0.79100
O199        O  0.96703317  0.91703110  0.37604437    -0.59400
O200        O  0.99388357  0.86928929  0.35807356    -0.50300
C201        C  0.02952993  0.97171597  0.31352295     0.71800
O202        O  0.05066653  0.97213904  0.34069964    -0.45100
C203        C  0.08174530  0.87556770  0.36112066     0.76500
O204        O  0.00491383  0.95373683  0.41114188    -0.57000
O205        O  0.07274849  0.89522814  0.33450390    -0.47100
O206        O  0.06068232  0.93683630  0.41360544    -0.53400
C207        C  0.96460413  0.88345471  0.36933298     0.86600
O208        O  0.00844560  0.94431127  0.31135277    -0.55300
O209        O  0.06087108  0.87739676  0.38803368    -0.58600
In210      In  0.99885232  0.92582885  0.59086759     1.36900
C211        C  0.00446743  0.95495693  0.52555911     0.79100
O212        O  0.05572268  0.92056890  0.61341951    -0.59400
O213        O  0.03411709  0.87804189  0.57971102    -0.50300
C214        C  0.99211797  0.96753926  0.64858147     0.71800
O215        O  0.98282299  0.93441450  0.64868969    -0.45100
C216        C  0.93898032  0.88483393  0.58566064     0.76500
O217        O  0.97697854  0.96056550  0.54516619    -0.57000
O218        O  0.96963014  0.87200822  0.59556850    -0.47100
O219        O  0.02976154  0.93701320  0.54035753    -0.53400
C220        C  0.06127887  0.89080095  0.59738698     0.86600
O221        O  0.00638627  0.97846686  0.61959856    -0.55300
O222        O  0.93903510  0.91849439  0.57910190    -0.58600
C223        C  0.71513497  0.12851197  0.31943034     0.88000
C224        C  0.69951152  0.14256675  0.28358491    -0.52200
C225        C  0.67284820  0.12059483  0.26837238     0.10900
C226        C  0.66613476  0.08480939  0.28943524     0.21900
C227        C  0.68060850  0.12173318  0.34226150    -0.53000
C228        C  0.65526082  0.09868241  0.32676411     0.11000
C229        C  0.72974833  0.09027102  0.31087304    -0.52500
C230        C  0.70423739  0.06670040  0.29593988     0.11600
H231        H  0.70644633  0.16932705  0.27297800     0.16100
H232        H  0.64484670  0.06696901  0.27671786     0.01900
H233        H  0.67453937  0.13646677  0.36665089     0.16400
H234        H  0.75744233  0.08185469  0.31841759     0.16200
C235        C  0.72546037  0.90469299  0.31643176     0.88000
C236        C  0.72670754  0.94588273  0.30886673    -0.52200
C237        C  0.69536002  0.95942604  0.29256941     0.10900
C238        C  0.66584978  0.92929183  0.28456665     0.21900
C239        C  0.68989806  0.89862019  0.33788339    -0.53000
C240        C  0.65890757  0.91094940  0.32096020     0.11000
C241        C  0.71703912  0.88712708  0.27956636    -0.52500
C242        C  0.68531183  0.89890562  0.26320424     0.11600
H243        H  0.74991883  0.96262241  0.31754182     0.16100
H244        H  0.64031355  0.93947715  0.27129290     0.01900
H245        H  0.68821452  0.88422867  0.36331444     0.16400
H246        H  0.73307891  0.86468625  0.26893913     0.16200
C247        C  0.28847743  0.10398977  0.33357610     0.88000
C248        C  0.28093423  0.06455886  0.32152667    -0.52200
C249        C  0.31137259  0.04577469  0.31063416     0.10900
C250        C  0.34695812  0.06942305  0.31107649     0.21900
C251        C  0.31960151  0.10082152  0.36214479    -0.53000
C252        C  0.35018546  0.08326755  0.35015897     0.11000
C253        C  0.30740773  0.12205377  0.30112192    -0.52500
C254        C  0.33854974  0.10459945  0.28967204     0.11600
H255        H  0.25393460  0.05178670  0.32385953     0.16100
H256        H  0.37160910  0.05486087  0.30132050     0.01900
H257        H  0.31925143  0.11301779  0.38874167     0.16400
H258        H  0.29761313  0.14727842  0.28922593     0.16200
C259        C  0.30333603  0.88533176  0.33708519     0.88000
C260        C  0.31955403  0.86582954  0.30408131    -0.52200
C261        C  0.35218704  0.88065016  0.29232158     0.10900
C262        C  0.36496066  0.91409661  0.31461520     0.21900
C263        C  0.33432055  0.88533681  0.36557598    -0.53000
C264        C  0.36673020  0.89948366  0.35353353     0.11000
C265        C  0.30004814  0.92553154  0.32566084    -0.52500
C266        C  0.33237817  0.94126056  0.31435144     0.11600
H267        H  0.30631074  0.84228958  0.29162640     0.16100
H268        H  0.39144047  0.92618824  0.30547046     0.01900
H269        H  0.33151937  0.87319451  0.39219129     0.16400
H270        H  0.27470947  0.94059031  0.32911028     0.16200
In271      In  0.52643500  0.86586447  0.41871556     1.36900
C272        C  0.53601100  0.92926711  0.45086276     0.79100
O273        O  0.55702412  0.89210799  0.37443646    -0.59400
O274        O  0.57401700  0.83917918  0.39096601    -0.50300
C275        C  0.52413096  0.81407988  0.46841304     0.71800
O276        O  0.54808368  0.83899184  0.46865208    -0.45100
C277        C  0.46430426  0.87312095  0.38138766     0.76500
O278        O  0.50528647  0.91300796  0.44998232    -0.57000
O279        O  0.49047536  0.85375846  0.37014633    -0.47100
O280        O  0.56268002  0.91117902  0.43914473    -0.53400
C281        C  0.58019523  0.86694196  0.37173316     0.86600
O282        O  0.50335529  0.81350942  0.44092700    -0.55300
O283        O  0.46945179  0.88704645  0.41213240    -0.58600
In284      In  0.51009924  0.09307248  0.42124723     1.36900
C285        C  0.51137736  0.02742658  0.45138160     0.79100
O286        O  0.44971304  0.08665597  0.41406941    -0.59400
O287        O  0.48288317  0.08759001  0.36691611    -0.50300
C288        C  0.50250466  0.15757952  0.45267655     0.71800
O289        O  0.51079601  0.12906941  0.46991897    -0.45100
C290        C  0.57519199  0.09647310  0.39226215     0.76500
O291        O  0.48481157  0.04880360  0.45554436    -0.57000
O292        O  0.54645739  0.09032664  0.37344202    -0.47100
O293        O  0.53810911  0.04067876  0.43455792    -0.53400
C294        C  0.45099743  0.08520789  0.38010220     0.86600
O295        O  0.50015534  0.15340271  0.41904697    -0.55300
O296        O  0.57021168  0.10182585  0.42554876    -0.58600
C297        C  0.39019186  0.20724081  0.17115965     0.88000
C298        C  0.43154663  0.21450079  0.17786099    -0.52200
C299        C  0.44952998  0.18752883  0.19679323     0.10900
C300        C  0.42325250  0.15607391  0.20839777     0.21900
C301        C  0.38861151  0.16915615  0.15343649    -0.53000
C302        C  0.40590199  0.14270922  0.17307271     0.11000
C303        C  0.37416592  0.20109388  0.20884767    -0.52500
C304        C  0.39017217  0.17345289  0.22798205     0.11600
H305        H  0.44531965  0.23785032  0.16603601     0.16100
H306        H  0.43707525  0.13414489  0.22405032     0.01900
H307        H  0.37495701  0.16266455  0.12810950     0.16400
H308        H  0.34941200  0.21475217  0.21789093     0.16200
C309        C  0.61519918  0.22433866  0.15817382     0.88000
C310        C  0.63229032  0.21478734  0.19487592    -0.52200
C311        C  0.61453569  0.18746390  0.21272859     0.10900
C312        C  0.57962771  0.17307107  0.19297759     0.21900
C313        C  0.61292105  0.18775140  0.13793610    -0.53000
C314        C  0.59477596  0.16090275  0.15649596     0.11000
C315        C  0.57496128  0.23373812  0.16649563    -0.52500
C316        C  0.55564027  0.20699626  0.18418283     0.11600
H317        H  0.65816540  0.22656607  0.20455569     0.16100
H318        H  0.56528301  0.15097532  0.20784434     0.01900
H319        H  0.62514808  0.18281504  0.11190084     0.16400
H320        H  0.56240110  0.25907898  0.15775303     0.16200
C321        C  0.62150254  0.79500667  0.15568995     0.88000
C322        C  0.58405310  0.78134227  0.16924938    -0.52200
C323        C  0.56154394  0.80767434  0.18287254     0.10900
C324        C  0.58002710  0.84610021  0.18309319     0.21900
C325        C  0.61161686  0.82565795  0.12901832    -0.53000
C326        C  0.59067483  0.85248605  0.14354597     0.11000
C327        C  0.63908370  0.81473627  0.18817938    -0.52500
C328        C  0.61807795  0.84224595  0.20217029     0.11600
H329        H  0.57518825  0.75312657  0.16618849     0.16100
H330        H  0.56272187  0.86805202  0.19445220     0.01900
H331        H  0.62153589  0.82782530  0.10162658     0.16400
H332        H  0.66649221  0.80818340  0.19819547     0.16200
C333        C  0.40014044  0.77320592  0.16867733     0.88000
C334        C  0.38227482  0.78233492  0.20492870    -0.52200
C335        C  0.39234842  0.81558527  0.21893706     0.10900
C336        C  0.42086644  0.83617108  0.19532680     0.21900
C337        C  0.39142921  0.80563552  0.14415093    -0.53000
C338        C  0.40163759  0.83852567  0.15811113     0.11000
C339        C  0.44198608  0.77639593  0.17585768    -0.52500
C340        C  0.45342748  0.80960635  0.18934645     0.11600
H341        H  0.36173253  0.76483336  0.21735291     0.16100
H342        H  0.43016264  0.86290843  0.20606284     0.01900
H343        H  0.37786011  0.80283646  0.11797025     0.16400
H344        H  0.46082899  0.75507275  0.16799796     0.16200
In345      In  0.37752478  0.99559407  0.08885491     1.36900
C346        C  0.43929850  0.99442856  0.05077300     0.79100
O347        O  0.40619047  0.03775981  0.12206304    -0.59400
O348        O  0.34722496  0.03625580  0.12169455    -0.50300
C349        C  0.31994818  0.00173019  0.04458859     0.71800
O350        O  0.32283924  0.97550326  0.06628127    -0.45100
C351        C  0.38389325  0.93737993  0.13089231     0.76500
O352        O  0.41940719  0.96665309  0.05502512    -0.57000
O353        O  0.38007793  0.96885707  0.14387181    -0.47100
O354        O  0.42604062  0.02335562  0.06321831    -0.53400
C355        C  0.37645503  0.05252689  0.13160091     0.86600
O356        O  0.34573477  0.02471853  0.04626600    -0.55300
O357        O  0.38268736  0.93588084  0.09695794    -0.58600
In358      In  0.60513601  0.00922750  0.07471947     1.36900
C359        C  0.53892524  0.01707122  0.04462036     0.79100
O360        O  0.59512858  0.95031478  0.08287817    -0.59400
O361        O  0.60427470  0.98275849  0.12974303    -0.50300
C362        C  0.66354381  0.99900542  0.03338477     0.71800
O363        O  0.63325056  0.01086044  0.02132602    -0.45100
C364        C  0.61572748  0.07124002  0.10916942     0.76500
O365        O  0.55394106  0.98652914  0.04845941    -0.57000
O366        O  0.59126752  0.04858976  0.11860279    -0.47100
O367        O  0.55938552  0.04383127  0.05215269    -0.53400
C368        C  0.59702161  0.95166086  0.11682653     0.86600
O369        O  0.66379642  0.99217173  0.06671837    -0.55300
O370        O  0.63608654  0.06103972  0.08380648    -0.58600
C371        C  0.36423422  0.20378200  0.82453988     0.88000
C372        C  0.34895026  0.18805857  0.78881102    -0.52200
C373        C  0.36934279  0.16006498  0.77473342     0.10900
C374        C  0.40501301  0.15227261  0.79681981     0.21900
C375        C  0.36836489  0.16983942  0.84881015    -0.53000
C376        C  0.38928922  0.14289497  0.83389910     0.11000
C377        C  0.40382788  0.21565255  0.81615547    -0.52500
C378        C  0.42590175  0.18904772  0.80246722     0.11600
H379        H  0.32257252  0.19635178  0.77747843     0.16100
H380        H  0.42196753  0.13016520  0.78520306     0.01900
H381        H  0.35435776  0.16593811  0.87422102     0.16400
H382        H  0.41413093  0.24282893  0.82246190     0.16200
C383        C  0.58888543  0.21492979  0.82493685     0.88000
C384        C  0.54730048  0.21414882  0.81574430    -0.52200
C385        C  0.53455157  0.18149234  0.80179968     0.10900
C386        C  0.56594987  0.15307004  0.79742853     0.21900
C387        C  0.59431655  0.18235992  0.84995641    -0.53000
C388        C  0.58301207  0.15006726  0.83565320     0.11000
C389        C  0.60791892  0.20466171  0.78966213    -0.52500
C390        C  0.59671114  0.17206543  0.77516317     0.11600
H391        H  0.52952711  0.23672469  0.82250062     0.16100
H392        H  0.55604303  0.12670515  0.78618663     0.01900
H393        H  0.60673441  0.18456177  0.87672773     0.16400
H394        H  0.62977530  0.22114352  0.77803442     0.16200
C395        C  0.37165105  0.77478807  0.83565616     0.88000
C396        C  0.40959947  0.76652982  0.81950117    -0.52200
C397        C  0.42800418  0.79600167  0.80542876     0.10900
C398        C  0.40541970  0.83166370  0.80800117     0.21900
C399        C  0.37959403  0.80561161  0.86292638    -0.53000
C400        C  0.39628521  0.83544315  0.84830457     0.11000
C401        C  0.35005817  0.79347706  0.80477486    -0.52500
C402        C  0.36729319  0.82369848  0.79056450     0.11600
H403        H  0.42166914  0.73953807  0.82067655     0.16100
H404        H  0.41949510  0.85595165  0.79660449     0.01900
H405        H  0.37098834  0.80569138  0.89080571     0.16400
H406        H  0.32313243  0.78387378  0.79568668     0.16200
C407        C  0.59058018  0.78655879  0.81386658     0.88000
C408        C  0.60816208  0.79163541  0.77683461    -0.52200
C409        C  0.59540510  0.82110166  0.75801958     0.10900
C410        C  0.56346510  0.84124932  0.77743180     0.21900
C411        C  0.59530491  0.82343945  0.83278828    -0.53000
C412        C  0.58139625  0.85200472  0.81348062     0.11000
C413        C  0.54897442  0.78331302  0.80629473    -0.52500
C414        C  0.53382827  0.81214185  0.78801673     0.11600
H415        H  0.63162950  0.77574403  0.76812270     0.16100
H416        H  0.55215905  0.86475444  0.76211876     0.01900
H417        H  0.60838051  0.82662262  0.85915060     0.16400
H418        H  0.53258842  0.76171678  0.81825425     0.16200
In419      In  0.37653160  0.99247673  0.91683669     1.36900
C420        C  0.44342236  0.00200859  0.94521756     0.79100
O421        O  0.38465662  0.93313774  0.90969927    -0.59400
O422        O  0.37661258  0.96513094  0.86241832    -0.50300
C423        C  0.32221839  0.98404830  0.96327752     0.71800
O424        O  0.35225061  0.00007220  0.97081546    -0.45100
C425        C  0.36594242  0.05283791  0.87985387     0.76500
O426        O  0.42978124  0.97095819  0.93912087    -0.57000
O427        O  0.39422973  0.03345551  0.87623787    -0.47100
O428        O  0.42134295  0.02794293  0.94099757    -0.53400
C429        C  0.38318610  0.93416384  0.87571382     0.86600
O430        O  0.31973421  0.97189739  0.93154009    -0.55300
O431        O  0.34142274  0.03961004  0.89995515    -0.58600
In432      In  0.60861843  0.99397461  0.90540750     1.36900
C433        C  0.54494935  0.98577510  0.93891707     0.79100
O434        O  0.60068654  0.05345682  0.89801913    -0.59400
O435        O  0.60652215  0.02097278  0.85093935    -0.50300
C436        C  0.66598149  0.99652919  0.95067705     0.71800
O437        O  0.63588921  0.98120304  0.95827827    -0.45100
C438        C  0.61290459  0.93679339  0.86305889     0.76500
O439        O  0.55856690  0.01672944  0.93223169    -0.57000
O440        O  0.58361792  0.95454770  0.86698215    -0.47100
O441        O  0.56537932  0.95931183  0.93141226    -0.53400
C442        C  0.60070818  0.05203953  0.86398468     0.86600
O443        O  0.66690291  0.01044546  0.91964045    -0.55300
O444        O  0.64084715  0.94941981  0.87946501    -0.58600
C445        C  0.33852644  0.69873424  0.11786996     0.88000
C446        C  0.30541748  0.67938984  0.13527974    -0.52200
C447        C  0.29140807  0.65072540  0.11549684     0.10900
C448        C  0.31132011  0.64470418  0.07944309     0.21900
C449        C  0.36611685  0.66790127  0.11078506    -0.53000
C450        C  0.35157795  0.63956044  0.09136020     0.11000
C451        C  0.32465506  0.70975382  0.08001335    -0.52500
C452        C  0.31124348  0.68159317  0.05921833     0.11600
H453        H  0.29469769  0.68735133  0.16136295     0.16100
H454        H  0.29982730  0.62158345  0.06351731     0.01900
H455        H  0.39389332  0.66673077  0.12172823     0.16400
H456        H  0.32749435  0.73733419  0.06973307     0.16200
C457        C  0.32622346  0.69901017  0.89912741     0.88000
C458        C  0.31669383  0.70029800  0.93956929    -0.52200
C459        C  0.30634115  0.66744042  0.95414083     0.10900
C460        C  0.30541452  0.63628644  0.92570219     0.21900
C461        C  0.35551462  0.66921266  0.89657782    -0.53000
C462        C  0.34444869  0.63624497  0.90963026     0.11000
C463        C  0.29167032  0.68266758  0.88044302    -0.52500
C464        C  0.28085809  0.64935836  0.89391564     0.11600
H465        H  0.32077927  0.72484276  0.95546642     0.16100
H466        H  0.29690306  0.60948794  0.93692785     0.01900
H467        H  0.38208901  0.67338222  0.88385639     0.16400
H468        H  0.27777773  0.69607760  0.85806888     0.16200
C469        C  0.33223133  0.26661094  0.10101583     0.88000
C470        C  0.31687420  0.25810150  0.06310772    -0.52200
C471        C  0.29847743  0.28623140  0.04673018     0.10900
C472        C  0.29577311  0.32049024  0.07142774     0.21900
C473        C  0.35526373  0.30130484  0.09603860    -0.53000
C474        C  0.33603325  0.32977514  0.08123090     0.11000
C475        C  0.29864308  0.27845912  0.12260152    -0.52500
C476        C  0.27981599  0.30707570  0.10795880     0.11600
H477        H  0.32196834  0.23242382  0.04947864     0.16100
H478        H  0.28034199  0.34353004  0.05924347     0.01900
H479        H  0.38407579  0.30297418  0.10415005     0.16400
H480        H  0.29137534  0.26630063  0.14834032     0.16200
C481        C  0.31109812  0.27350790  0.88781243     0.88000
C482        C  0.27379361  0.28174865  0.86984232    -0.52200
C483        C  0.25760615  0.31312006  0.88168776     0.10900
C484        C  0.27940432  0.33194264  0.91302602     0.21900
C485        C  0.33391209  0.30866299  0.88313078    -0.53000
C486        C  0.31714987  0.33921825  0.89617164     0.11000
C487        C  0.30313154  0.27190593  0.92847005    -0.52500
C488        C  0.28702108  0.30248752  0.94247118     0.11600
H489        H  0.26305077  0.26611408  0.84706937     0.16100
H490        H  0.26610352  0.35689108  0.92359092     0.01900
H491        H  0.36094984  0.30919690  0.87076739     0.16400
H492        H  0.31277882  0.24946736  0.94503926     0.16200
In493      In  0.41514035  0.48151714  0.87073149     1.36900
C494        C  0.45133583  0.46944592  0.93172399     0.79100
O495        O  0.40919160  0.53992195  0.88739499    -0.59400
O496        O  0.36068690  0.51052953  0.87271413    -0.50300
C497        C  0.45823451  0.49148115  0.81399205     0.71800
O498        O  0.46737738  0.47261014  0.84094690    -0.45100
C499        C  0.37274444  0.42268059  0.86645394     0.76500
O500        O  0.44708200  0.50098814  0.91902304    -0.57000
O501        O  0.37360249  0.44320434  0.89376155    -0.47100
O502        O  0.44146007  0.44396239  0.91102011    -0.53400
C503        C  0.37454681  0.53994677  0.88434265     0.86600
O504        O  0.42584413  0.50355744  0.81488630    -0.55300
O505        O  0.39166247  0.43366334  0.84013591    -0.58600
In506      In  0.42124436  0.48219020  0.09518524     1.36900
C507        C  0.45288257  0.48536567  0.03098044     0.79100
O508        O  0.42185293  0.42524774  0.11459926    -0.59400
O509        O  0.37665846  0.44200156  0.08112164    -0.50300
C510        C  0.45816023  0.48867933  0.15714888     0.71800
O511        O  0.47305400  0.47903364  0.12802696    -0.45100
C512        C  0.37820782  0.53976959  0.09159670     0.76500
O513        O  0.45654230  0.51033351  0.05396122    -0.57000
O514        O  0.36481259  0.50808137  0.09484695    -0.47100
O515        O  0.43656737  0.45733482  0.04213942    -0.53400
C516        C  0.39237030  0.41656498  0.09832331     0.86600
O517        O  0.42385798  0.49366142  0.15471560    -0.55300
O518        O  0.41283448  0.54135939  0.09080050    -0.58600
C519        C  0.67265156  0.72608685  0.09183598     0.88000
C520        C  0.68197347  0.72810051  0.05138034    -0.52200
C521        C  0.69165338  0.69538928  0.03621484     0.10900
C522        C  0.69251859  0.66393774  0.06430037     0.21900
C523        C  0.64302854  0.69621139  0.09409242    -0.53000
C524        C  0.65377674  0.66363457  0.08063325     0.11000
C525        C  0.70702884  0.70970878  0.11021751    -0.52500
C526        C  0.71718033  0.67662184  0.09622512     0.11600
H527        H  0.67846541  0.75301508  0.03610083     0.16100
H528        H  0.70048200  0.63713661  0.05287582     0.01900
H529        H  0.61664817  0.69987066  0.10725964     0.16400
H530        H  0.72084954  0.72252288  0.13310020     0.16200
C531        C  0.65698631  0.72274406  0.87119844     0.88000
C532        C  0.69152882  0.70560602  0.85470058    -0.52200
C533        C  0.70654450  0.67806380  0.87498230     0.10900
C534        C  0.68641810  0.67120021  0.91082695     0.21900
C535        C  0.63124298  0.68999205  0.87800252    -0.53000
C536        C  0.64688095  0.66337662  0.89827018     0.11000
C537        C  0.66924553  0.73521423  0.90920335    -0.52500
C538        C  0.68386135  0.70829010  0.93066032     0.11600
H539        H  0.70188949  0.71333500  0.82835028     0.16100
H540        H  0.69850275  0.64870046  0.92696817     0.01900
H541        H  0.60418415  0.68581077  0.86604169     0.16400
H542        H  0.66435430  0.76262698  0.91908433     0.16200
C543        C  0.66954845  0.28937122  0.09151118     0.88000
C544        C  0.70555824  0.29967195  0.11108881    -0.52200
C545        C  0.72103265  0.33187762  0.10019421     0.10900
C546        C  0.69952727  0.34987761  0.06822288     0.21900
C547        C  0.64489899  0.32270738  0.09488841    -0.53000
C548        C  0.66053719  0.35436495  0.08361816     0.11000
C549        C  0.67931766  0.28825896  0.05128493    -0.52500
C550        C  0.69429861  0.32014478  0.03800096     0.11600
H551        H  0.71600336  0.28436250  0.13408771     0.16100
H552        H  0.71210555  0.37559756  0.05833749     0.01900
H553        H  0.61753981  0.32156942  0.10659996     0.16400
H554        H  0.67126730  0.26525945  0.03452398     0.16200
C555        C  0.65511877  0.28577084  0.87530160     0.88000
C556        C  0.66799300  0.27749169  0.91407141    -0.52200
C557        C  0.68422536  0.30621307  0.93224744     0.10900
C558        C  0.68729085  0.34115327  0.90829928     0.21900
C559        C  0.63058434  0.31930027  0.87907865    -0.53000
C560        C  0.64710106  0.34816764  0.89595018     0.11000
C561        C  0.68976623  0.29978643  0.85656366    -0.52500
C562        C  0.70655764  0.32898557  0.87286473     0.11600
H563        H  0.66312692  0.25116710  0.92666639     0.16100
H564        H  0.70098717  0.36452608  0.92205492     0.01900
H565        H  0.60263047  0.32121631  0.86870446     0.16400
H566        H  0.69961813  0.28815404  0.83146188     0.16200
In567      In  0.57957078  0.50629232  0.88342002     1.36900
C568        C  0.54894332  0.51190300  0.94748724     0.79100
O569        O  0.58679570  0.44641612  0.88504853    -0.59400
O570        O  0.63258477  0.47984032  0.90063793    -0.50300
C571        C  0.54102269  0.50380740  0.82156809     0.71800
O572        O  0.57552073  0.50144219  0.82273050    -0.45100
C573        C  0.62011682  0.56559162  0.88295060     0.76500
O574        O  0.55189848  0.53860805  0.92648375    -0.57000
O575        O  0.63165273  0.53635840  0.86930374    -0.47100
O576        O  0.55675113  0.48146693  0.93386361    -0.53400
C577        C  0.61994141  0.44806414  0.89599551     0.86600
O578        O  0.52653938  0.50790408  0.85198658    -0.55300
O579        O  0.58792844  0.56425331  0.89520421    -0.58600
In580      In  0.58773855  0.50677063  0.11137089     1.36900
C581        C  0.55728123  0.49607986  0.04688930     0.79100
O582        O  0.59182455  0.56549909  0.09842447    -0.59400
O583        O  0.63749549  0.54095568  0.12538726    -0.50300
C584        C  0.54157924  0.50320155  0.16670914     0.71800
O585        O  0.53244673  0.51372040  0.13570787    -0.45100
C586        C  0.63392715  0.45260224  0.10226462     0.76500
O587        O  0.56469325  0.52734476  0.05904317    -0.57000
O588        O  0.64363932  0.48513176  0.09664210    -0.47100
O589        O  0.56285192  0.47046497  0.06865824    -0.53400
C590        C  0.62451015  0.56878073  0.10993331     0.86600
O591        O  0.57555997  0.49734515  0.17057768    -0.55300
O592        O  0.60206411  0.44859675  0.11515770    -0.58600
C593        C  0.16970382  0.36882088  0.20729696     0.88000
C594        C  0.18023775  0.40760380  0.21923695    -0.52200
C595        C  0.19388323  0.42966999  0.19279590     0.10900
C596        C  0.19758975  0.40965375  0.15611285     0.21900
C597        C  0.14368315  0.37412840  0.17430178    -0.53000
C598        C  0.15871605  0.39537021  0.14766506     0.11000
C599        C  0.20494105  0.35337136  0.19063498    -0.52500
C600        C  0.21910673  0.37392632  0.16292860     0.11600
H601        H  0.17487639  0.41754871  0.24633041     0.16100
H602        H  0.20929769  0.42654694  0.13410351     0.01900
H603        H  0.11672987  0.36152671  0.17114689     0.16400
H604        H  0.21617572  0.32720936  0.19863926     0.16200
C605        C  0.16878550  0.59061898  0.21263321     0.88000
C606        C  0.20668195  0.60846032  0.20745554    -0.52200
C607        C  0.22461360  0.59712559  0.17724403     0.10900
C608        C  0.20351955  0.56712169  0.15586188     0.21900
C609        C  0.14801939  0.59681551  0.17700052    -0.53000
C610        C  0.16646223  0.58511930  0.14722400     0.11000
C611        C  0.17634231  0.54927507  0.21321158    -0.52500
C612        C  0.19427508  0.53645246  0.18323499     0.11600
H613        H  0.21695263  0.63049032  0.22450611     0.16100
H614        H  0.21811310  0.55729768  0.13153781     0.01900
H615        H  0.12116421  0.60965933  0.17572596     0.16400
H616        H  0.16605143  0.53168954  0.23443596     0.16200
C617        C  0.15474548  0.60256727  0.78453163     0.88000
C618        C  0.16376501  0.56160096  0.78159998    -0.52200
C619        C  0.17955403  0.54662963  0.81221704     0.10900
C620        C  0.18586169  0.57545698  0.84286141     0.21900
C621        C  0.13113267  0.60518552  0.81859174    -0.53000
C622        C  0.14747064  0.59169931  0.84887395     0.11000
C623        C  0.19160982  0.62075150  0.79519849    -0.52500
C624        C  0.20777971  0.60764949  0.82611136     0.11600
H625        H  0.15570197  0.54571859  0.75806701     0.16100
H626        H  0.19836392  0.56396651  0.86781501     0.01900
H627        H  0.10403334  0.61728268  0.81984384     0.16400
H628        H  0.20271817  0.64399788  0.78063772     0.16200
C629        C  0.14981841  0.38028387  0.77825200     0.88000
C630        C  0.18331859  0.36251892  0.79687712    -0.52200
C631        C  0.19733273  0.38155820  0.82593113     0.10900
C632        C  0.17723926  0.41804913  0.83264399     0.21900
C633        C  0.12247950  0.38653471  0.80931822    -0.53000
C634        C  0.13711173  0.40558131  0.83789370     0.11000
C635        C  0.16300660  0.41893898  0.76824616    -0.52500
C636        C  0.17633685  0.43961991  0.79649448     0.11600
H637        H  0.19376745  0.33615081  0.78868279     0.16100
H638        H  0.18885183  0.43376655  0.85573980     0.01900
H639        H  0.09475354  0.37550079  0.81026321     0.16400
H640        H  0.15931075  0.42997342  0.74123598     0.16200
In641      In  0.07282275  0.39637191  0.99709293     1.36900
C642        C  0.04429758  0.46100639  0.01169335     0.79100
O643        O  0.11331028  0.41122631  0.04056810    -0.59400
O644        O  0.09093515  0.35750425  0.04041277    -0.50300
C645        C  0.02388591  0.34370880  0.98412729     0.71800
O646        O  0.01610345  0.37280057  0.00038510    -0.45100
C647        C  0.11276991  0.40453748  0.93792325     0.76500
O648        O  0.04709615  0.43651356  0.03527383    -0.57000
O649        O  0.12748641  0.39813575  0.96831150    -0.47100
O650        O  0.05275600  0.45123531  0.98028482    -0.53400
C651        C  0.11034362  0.38107445  0.05666983     0.86600
O652        O  0.05718880  0.34118862  0.97532825    -0.55300
O653        O  0.07817307  0.40705727  0.93822480    -0.58600
In654      In  0.08010252  0.62501278  0.00249849     1.36900
C655        C  0.04405511  0.56200106  0.00005201     0.79100
O656        O  0.08784815  0.61350604  0.94449795    -0.59400
O657        O  0.13569517  0.62781763  0.97498190    -0.50300
C658        C  0.04266410  0.68701177  0.00025186     0.71800
O659        O  0.02905802  0.65731306  0.01107175    -0.45100
C660        C  0.11491009  0.62249396  0.06509257     0.76500
O661        O  0.06060132  0.57292548  0.02808055    -0.57000
O662        O  0.12460785  0.60343259  0.03847325    -0.47100
O663        O  0.04194430  0.58509248  0.97507715    -0.53400
C664        C  0.12234634  0.61739584  0.94504922     0.86600
O665        O  0.07589083  0.68506567  0.99080977    -0.55300
O666        O  0.08881961  0.64420538  0.05898526    -0.58600
C667        C  0.82352548  0.40251214  0.20886068     0.88000
C668        C  0.79182775  0.38316264  0.18823292    -0.52200
C669        C  0.77979473  0.40140948  0.15786747     0.10900
C670        C  0.80004854  0.43824563  0.15196896     0.21900
C671        C  0.85325150  0.40898405  0.17998683    -0.53000
C672        C  0.84054083  0.42632002  0.14967636     0.11000
C673        C  0.80901081  0.44077336  0.21704982    -0.52500
C674        C  0.79794555  0.46041039  0.18760777     0.11600
H675        H  0.78114633  0.35670711  0.19624566     0.16100
H676        H  0.78985025  0.45363773  0.12816847     0.01900
H677        H  0.88102969  0.39824596  0.18188038     0.16400
H678        H  0.81056532  0.45263940  0.24392785     0.16200
C679        C  0.83392827  0.61748120  0.20861397     0.88000
C680        C  0.82102286  0.57736280  0.20761654    -0.52200
C681        C  0.80594527  0.56619942  0.17522418     0.10900
C682        C  0.80434409  0.59749114  0.14691457     0.21900
C683        C  0.85996783  0.62098007  0.17651593    -0.53000
C684        C  0.84436341  0.61139023  0.14424079     0.11000
C685        C  0.79962637  0.63943780  0.19782081    -0.52500
C686        C  0.78427648  0.62976099  0.16514335     0.11600
H687        H  0.82634160  0.55882887  0.22985483     0.16100
H688        H  0.79243368  0.58857498  0.12064344     0.01900
H689        H  0.88799696  0.63150903  0.17890335     0.16400
H690        H  0.78972973  0.66220644  0.21370830     0.16200
C691        C  0.81624730  0.39451169  0.77354685     0.88000
C692        C  0.80266278  0.43267366  0.76305606    -0.52200
C693        C  0.79127157  0.45370256  0.79131935     0.10900
C694        C  0.79225723  0.43299971  0.82789454     0.21900
C695        C  0.84554115  0.40188880  0.80307745    -0.53000
C696        C  0.83263889  0.42101107  0.83183549     0.11000
C697        C  0.78379263  0.37678421  0.79337586    -0.52500
C698        C  0.77130013  0.39645130  0.82231867     0.11600
H699        H  0.80520447  0.44337505  0.73581325     0.16100
H700        H  0.78215293  0.44903752  0.85114203     0.01900
H701        H  0.87348097  0.39147598  0.80236562     0.16400
H702        H  0.77236598  0.35051324  0.78545699     0.16200
C703        C  0.82223295  0.61363366  0.77571292     0.88000
C704        C  0.78472147  0.63161239  0.78136520    -0.52200
C705        C  0.76699448  0.62027969  0.81172795     0.10900
C706        C  0.78752159  0.58985748  0.83250804     0.21900
C707        C  0.84343466  0.61963234  0.81149297    -0.53000
C708        C  0.82497131  0.60745756  0.84119635     0.11000
C709        C  0.81384030  0.57243049  0.77472312    -0.52500
C710        C  0.79584098  0.55951438  0.80461674     0.11600
H711        H  0.77481328  0.65396897  0.76475245     0.16100
H712        H  0.77277245  0.57992551  0.85678464     0.01900
H713        H  0.87038467  0.63267759  0.81308130     0.16400
H714        H  0.82347182  0.55487120  0.75323706     0.16200
In715      In  0.90258193  0.41296553  0.98958776     1.36900
C716        C  0.93620994  0.47671007  0.99780700     0.79100
O717        O  0.89587279  0.42333218  0.93081759    -0.59400
O718        O  0.84810615  0.40858267  0.96067813    -0.50300
C719        C  0.93964575  0.35114834  0.98206616     0.71800
O720        O  0.95258507  0.38190807  0.97410513    -0.45100
C721        C  0.86495016  0.41892698  0.04978887     0.76500
O722        O  0.92044831  0.46707777  0.96891347    -0.57000
O723        O  0.85010295  0.42306371  0.01908988    -0.47100
O724        O  0.93755980  0.45259059  0.02182458    -0.53400
C725        C  0.86158496  0.41726081  0.93055759     0.86600
O726        O  0.90705481  0.35177410  0.99324390    -0.55300
O727        O  0.89854427  0.41019346  0.04947664    -0.58600
In728      In  0.91054905  0.64101870  0.98842716     1.36900
C729        C  0.94125973  0.57638533  0.98182043     0.79100
O730        O  0.90389476  0.62803046  0.04628538    -0.59400
O731        O  0.85640585  0.64669892  0.01783246    -0.50300
C732        C  0.95850876  0.69541383  0.99630106     0.71800
O733        O  0.96630826  0.66530556  0.98219881    -0.45100
C734        C  0.87318339  0.64323249  0.92675139     0.76500
O735        O  0.93682198  0.59746096  0.95544986    -0.57000
O736        O  0.89451250  0.66872249  0.93662457    -0.47100
O737        O  0.93375735  0.58983577  0.01209763    -0.53400
C738        C  0.86996183  0.63491035  0.04715345     0.86600
O739        O  0.92532760  0.69832652  0.00556359    -0.55300
O740        O  0.86800835  0.61875460  0.95010247    -0.58600
C741        C  0.20961882  0.15404979  0.38880766     0.88000
C742        C  0.20713406  0.16323285  0.42928158    -0.52200
C743        C  0.17470347  0.17908044  0.43956899     0.10900
C744        C  0.14777967  0.18498214  0.40691463     0.21900
C745        C  0.17529223  0.13051137  0.38105853    -0.53000
C746        C  0.14291745  0.14681408  0.38994598     0.11000
C747        C  0.20233184  0.19018120  0.36921123    -0.52500
C748        C  0.16954858  0.20629936  0.37761805     0.11600
H749        H  0.22849900  0.15518663  0.44828879     0.16100
H750        H  0.12141887  0.19756390  0.41497528     0.01900
H751        H  0.17643703  0.10366967  0.36873420     0.16400
H752        H  0.22047848  0.20073781  0.34846164     0.16200
C753        C  0.19292952  0.15344814  0.60683489     0.88000
C754        C  0.17699101  0.18875792  0.62232910    -0.52200
C755        C  0.14980276  0.20441563  0.60155246     0.10900
C756        C  0.14263304  0.18383284  0.56540371     0.21900
C757        C  0.15904678  0.12913902  0.59924017    -0.53000
C758        C  0.13277080  0.14519331  0.57814390     0.11000
C759        C  0.20663289  0.16412567  0.56905171    -0.52500
C760        C  0.18047144  0.17907389  0.54650234     0.11600
H761        H  0.18568308  0.19931274  0.64846584     0.16100
H762        H  0.12099608  0.19638404  0.54811048     0.01900
H763        H  0.15478163  0.10216987  0.61039038     0.16400
H764        H  0.23433903  0.15794154  0.56010427     0.16200
C765        C  0.75262760  0.17638262  0.60344533     0.88000
C766        C  0.74538177  0.18794218  0.56397886    -0.52200
C767        C  0.77430518  0.20573990  0.54762040     0.10900
C768        C  0.80772694  0.21170514  0.57359594     0.21900
C769        C  0.78882705  0.15468602  0.60163995    -0.53000
C770        C  0.81760626  0.17320709  0.58616752     0.11000
C771        C  0.76338285  0.21184156  0.62278077    -0.52500
C772        C  0.79277717  0.22990999  0.60826581     0.11600
H773        H  0.72011142  0.18071280  0.54956442     0.16100
H774        H  0.83111270  0.22674148  0.56131863     0.01900
H775        H  0.79164795  0.12735453  0.61183727     0.16400
H776        H  0.75067189  0.22033113  0.64783603     0.16200
C777        C  0.77533319  0.18881606  0.38723371     0.88000
C778        C  0.78085703  0.22710548  0.37147529    -0.52200
C779        C  0.81061646  0.24564926  0.38568358     0.10900
C780        C  0.83020154  0.22479081  0.41688681     0.21900
C781        C  0.81268785  0.17029523  0.38323817    -0.53000
C782        C  0.84153368  0.18949643  0.39781306     0.11000
C783        C  0.77115956  0.19468554  0.42796170    -0.52500
C784        C  0.79963139  0.21326944  0.44435935     0.11600
H785        H  0.76568532  0.23654529  0.34784566     0.16100
H786        H  0.85374899  0.23993657  0.42931426     0.01900
H787        H  0.81623676  0.14493758  0.36853159     0.16400
H788        H  0.74840101  0.18271866  0.44268182     0.16200
In789      In  0.97670148  0.09687326  0.35596689     1.36900
C790        C  0.95889681  0.06444174  0.41734355     0.79100
O791        O  0.03512048  0.09720807  0.37514173    -0.59400
O792        O  0.01457752  0.14530925  0.35014385    -0.50300
C793        C  0.98276117  0.04813571  0.30369368     0.71800
O794        O  0.95859662  0.04596244  0.32766673    -0.45100
C795        C  0.92434321  0.14597135  0.35444770     0.76500
O796        O  0.99171793  0.06680167  0.40669862    -0.57000
O797        O  0.94821173  0.14443077  0.37932958    -0.47100
O798        O  0.93509077  0.07559088  0.39518570    -0.53400
C799        C  0.04137588  0.12961160  0.36551763     0.86600
O800        O  0.00104860  0.07742548  0.30367248    -0.55300
O801        O  0.92989179  0.12524083  0.32777269    -0.58600
In802      In  0.96947615  0.08459190  0.58265977     1.36900
C803        C  0.97028668  0.05641620  0.51676904     0.79100
O804        O  0.90993351  0.07832140  0.59402587    -0.59400
O805        O  0.93013047  0.13138002  0.58054575    -0.50300
C806        C  0.97710289  0.04805782  0.64401657     0.71800
O807        O  0.96447632  0.03390661  0.61535163    -0.45100
C808        C  0.03031068  0.12420648  0.57769654     0.76500
O809        O  0.99075886  0.04462639  0.54173733    -0.57000
O810        O  0.99986512  0.13845410  0.58578143    -0.47100
O811        O  0.94774731  0.08040185  0.52624082    -0.53400
C812        C  0.90278592  0.11145542  0.58860532     0.86600
O813        O  0.98468116  0.08149636  0.64161753    -0.55300
O814        O  0.02908570  0.09035259  0.57224302    -0.58600
C815        C  0.08873890  0.32383420  0.70609206     0.88000
C816        C  0.10928215  0.28843803  0.69749465    -0.52200
C817        C  0.09821454  0.27178540  0.66593663     0.10900
C818        C  0.06565360  0.29140600  0.64686859     0.21900
C819        C  0.09267488  0.34709181  0.67186913    -0.53000
C820        C  0.08095893  0.32988934  0.64096703     0.11000
C821        C  0.04766677  0.31272357  0.70643874    -0.52500
C822        C  0.03494055  0.29622112  0.67537955     0.11600
H823        H  0.13235058  0.27877961  0.71373222     0.16100
H824        H  0.05596034  0.27795011  0.62158089     0.01900
H825        H  0.10426480  0.37447681  0.67203403     0.16400
H826        H  0.02961829  0.32042679  0.72830791     0.16200
C827        C  0.87398219  0.32988155  0.71036614     0.88000
C828        C  0.91023886  0.31008452  0.71890929    -0.52200
C829        C  0.92848961  0.29729208  0.68932559     0.10900
C830        C  0.90658315  0.30326596  0.65356496     0.21900
C831        C  0.88483085  0.35869688  0.68225190    -0.53000
C832        C  0.90060369  0.34466664  0.65213908     0.11000
C833        C  0.85035205  0.30193559  0.68942689    -0.52500
C834        C  0.86707085  0.28803031  0.65931255     0.11600
H835        H  0.92235794  0.30969178  0.74587318     0.16100
H836        H  0.92025731  0.29208006  0.62932443     0.01900
H837        H  0.87836236  0.38744121  0.68475992     0.16400
H838        H  0.82274529  0.29439424  0.69776898     0.16200
C839        C  0.10538114  0.32450394  0.28179998     0.88000
C840        C  0.06320524  0.31888615  0.28167730    -0.52200
C841        C  0.04842405  0.31051849  0.31463577     0.10900
C842        C  0.07824759  0.30774800  0.34480571     0.21900
C843        C  0.11237489  0.35355760  0.31098738    -0.53000
C844        C  0.09912804  0.34444447  0.34409684     0.11000
C845        C  0.12127493  0.28908427  0.29813793    -0.52500
C846        C  0.10733440  0.28047342  0.33157873     0.11600
H847        H  0.04656186  0.32377193  0.25768346     0.16100
H848        H  0.06662387  0.30083450  0.37157865     0.01900
H849        H  0.12799179  0.37846214  0.30625081     0.16400
H850        H  0.14227857  0.27313720  0.28488043     0.16200
C851        C  0.88324387  0.34405524  0.27822930     0.88000
C852        C  0.86273800  0.31381722  0.29891177    -0.52200
C853        C  0.88114316  0.30167201  0.32921140     0.10900
C854        C  0.91909186  0.32040877  0.33523413     0.21900
C855        C  0.89114219  0.37365671  0.30693575    -0.53000
C856        C  0.90860593  0.36092222  0.33728585     0.11000
C857        C  0.92135616  0.32816465  0.27017681    -0.52500
C858        C  0.94101425  0.31678477  0.29971174     0.11600
H859        H  0.83556955  0.30395957  0.29088864     0.16100
H860        H  0.93434627  0.31025223  0.35928511     0.01900
H861        H  0.88090271  0.40133231  0.30497857     0.16400
H862        H  0.93303264  0.32849107  0.24328671     0.16200
In863      In  0.12131276  0.41797643  0.49886411     1.36900
C864        C  0.05775780  0.45253883  0.49285266     0.79100
O865        O  0.12184584  0.40928445  0.43932851    -0.59400
O866        O  0.11955307  0.36245267  0.47290369    -0.50300
C867        C  0.17932250  0.46170326  0.50055296     0.71800
O868        O  0.14932219  0.46904584  0.51565921    -0.45100
C869        C  0.11875636  0.38069637  0.55950896     0.76500
O870        O  0.07936203  0.44924985  0.46682184    -0.57000
O871        O  0.09370320  0.37865500  0.53567072    -0.47100
O872        O  0.07062168  0.44242662  0.52284496    -0.53400
C873        C  0.11856780  0.37517599  0.44126907     0.86600
O874        O  0.18069357  0.43037784  0.48667880    -0.55300
O875        O  0.14650333  0.39965326  0.55109130    -0.58600
In876      In  0.89022758  0.42062573  0.49814203     1.36900
C877        C  0.95633433  0.45089626  0.50748124     0.79100
O878        O  0.89863274  0.41168324  0.55707948    -0.59400
O879        O  0.88489144  0.36578848  0.52418518    -0.50300
C880        C  0.82699127  0.45761996  0.49487788     0.71800
O881        O  0.85776570  0.47117976  0.48696139    -0.45100
C882        C  0.89801152  0.38498184  0.43685222     0.76500
O883        O  0.93186594  0.45273488  0.53123206    -0.57000
O884        O  0.89511695  0.36890136  0.46679472    -0.47100
O885        O  0.94594245  0.43647219  0.47827323    -0.53400
C886        C  0.89302462  0.37775397  0.55524091     0.86600
O887        O  0.82838937  0.42471283  0.50396723    -0.55300
O888        O  0.89598139  0.41927286  0.43821725    -0.58600
C889        C  0.99502211  0.46060360  0.51454467    -0.14900
C890        C  0.01899311  0.46196175  0.48729604    -0.30100
H891        H  0.00475230  0.46044342  0.54239213     0.14100
H892        H  0.00891104  0.46296871  0.45956714     0.14700
C893        C  0.90829313  0.38181003  0.37139289    -0.14900
C894        C  0.90345707  0.36488966  0.40317769    -0.30100
H895        H  0.90787742  0.41139114  0.37001544     0.14100
H896        H  0.90188877  0.33539526  0.40468557     0.14700
C897        C  0.00744219  0.31017935  0.32213049    -0.14900
C898        C  0.98132175  0.30812411  0.29566703    -0.30100
H899        H  0.99901420  0.31432027  0.34982363     0.14100
H900        H  0.99021740  0.30334614  0.26823984     0.14700
C901        C  0.10745388  0.36690644  0.37631982    -0.14900
C902        C  0.11214958  0.35218934  0.40925376    -0.30100
H903        H  0.11134207  0.39606216  0.37251264     0.14100
H904        H  0.10997141  0.32291841  0.41309239     0.14700
C905        C  0.90474004  0.36706215  0.61951207    -0.14900
C906        C  0.89546971  0.35386459  0.58687311    -0.30100
H907        H  0.91060336  0.39597571  0.62291685     0.14100
H908        H  0.88758699  0.32542082  0.58355250     0.14700
C909        C  0.99427108  0.29210307  0.66695401    -0.14900
C910        C  0.96873836  0.28815098  0.69316981    -0.30100
H911        H  0.98538254  0.29642129  0.63923124     0.14100
H912        H  0.97857050  0.28311202  0.72050320     0.14700
C913        C  0.08490199  0.34534286  0.60453967    -0.14900
C914        C  0.11529746  0.36393888  0.59521408    -0.30100
H915        H  0.06342966  0.33951134  0.58464862     0.14100
H916        H  0.13762175  0.36802310  0.61461636     0.14700
C917        C  0.94910723  0.05432597  0.45428974    -0.14900
C918        C  0.97524710  0.04659224  0.47880119    -0.30100
H919        H  0.92135758  0.06069590  0.46304006     0.14100
H920        H  0.00292407  0.03972314  0.47028189     0.14700
C921        C  0.82806784  0.27491521  0.36337533    -0.14900
C922        C  0.86467537  0.27648291  0.35665564    -0.30100
H923        H  0.80961546  0.29261421  0.34830215     0.14100
H924        H  0.88339852  0.25914418  0.37178108     0.14700
C925        C  0.88018891  0.17969284  0.39085502    -0.14900
C926        C  0.89024191  0.16669122  0.35837935    -0.30100
H927        H  0.89985923  0.18142067  0.41309447     0.14100
H928        H  0.87062170  0.16616629  0.33601881     0.14700
C929        C  0.81146580  0.25935371  0.62961405    -0.14900
C930        C  0.84852820  0.26268870  0.63281903    -0.30100
H931        H  0.79394990  0.27587475  0.64651394     0.14100
H932        H  0.86603958  0.24614588  0.61591060     0.14700
C933        C  0.80277244  0.21656096  0.48521392    -0.14900
C934        C  0.77317280  0.21270155  0.50739870    -0.30100
H935        H  0.83020446  0.21928194  0.49693502     0.14100
H936        H  0.74592145  0.21099871  0.49511679     0.14700
C937        C  0.85566921  0.15912851  0.58279375    -0.14900
C938        C  0.86499787  0.12489102  0.59144254    -0.30100
H939        H  0.87668017  0.17776438  0.57292466     0.14100
H940        H  0.84460520  0.10530870  0.60037800     0.14700
C941        C  0.12522293  0.23439472  0.61504914    -0.14900
C942        C  0.12015661  0.24098170  0.65075966    -0.30100
H943        H  0.11035023  0.25049463  0.59516031     0.14100
H944        H  0.13477064  0.22450183  0.67047978     0.14700
C945        C  0.06507585  0.14488922  0.57592330    -0.14900
C946        C  0.09701140  0.12718707  0.57194613    -0.30100
H947        H  0.06484101  0.17406507  0.58106078     0.14100
H948        H  0.09702130  0.09765223  0.56934426     0.14700
C949        C  0.12069858  0.25024943  0.35557405    -0.14900
C950        C  0.15544638  0.23723490  0.35483942    -0.30100
H951        H  0.10167736  0.24022667  0.37565649     0.14100
H952        H  0.17450077  0.24889469  0.33551533     0.14700
C953        C  0.18887774  0.18348899  0.50675872    -0.14900
C954        C  0.16398904  0.18388001  0.47891795    -0.30100
H955        H  0.21793624  0.18287790  0.50018558     0.14100
H956        H  0.13480343  0.18514939  0.48491193     0.14700
C957        C  0.10693393  0.12901767  0.38251331    -0.14900
C958        C  0.07700284  0.14794783  0.37237357    -0.30100
H959        H  0.10560740  0.09944879  0.38354816     0.14100
H960        H  0.07871019  0.17719988  0.36857648     0.14700
C961        C  0.94792753  0.51437675  0.00424534    -0.14900
C962        C  0.94934594  0.53783526  0.97663515    -0.30100
H963        H  0.94897802  0.52406229  0.03199260     0.14100
H964        H  0.94903210  0.52772602  0.94902700     0.14700
C965        C  0.83824094  0.61182962  0.87880395    -0.14900
C966        C  0.85790026  0.64098604  0.88986056    -0.30100
H967        H  0.83020703  0.59107336  0.89815321     0.14100
H968        H  0.86464947  0.66263836  0.87100508     0.14700
C969        C  0.82979829  0.37259152  0.74124917    -0.14900
C970        C  0.85553576  0.34607345  0.74354983    -0.30100
H971        H  0.82032314  0.38102710  0.71459893     0.14100
H972        H  0.86581368  0.33793345  0.76998164     0.14700
C973        C  0.78742038  0.49412650  0.78595689    -0.14900
C974        C  0.79038494  0.51954560  0.81234855    -0.30100
H975        H  0.78594580  0.50349506  0.75814853     0.14100
H976        H  0.79110758  0.51108394  0.84041349     0.14700
C977        C  0.85454588  0.42476363  0.86526794    -0.14900
C978        C  0.83902425  0.41965735  0.89758912    -0.30100
H979        H  0.88435042  0.42708996  0.86309127     0.14100
H980        H  0.80953929  0.41471277  0.89968179     0.14700
C981        C  0.84816141  0.62873326  0.07988410    -0.14900
C982        C  0.86446510  0.61657641  0.11027401    -0.30100
H983        H  0.81886755  0.63448950  0.07910642     0.14100
H984        H  0.89421158  0.61293294  0.11120660     0.14700
C985        C  0.83697817  0.38306472  0.24327710    -0.14900
C986        C  0.86361949  0.35737524  0.24379093    -0.30100
H987        H  0.82711041  0.39321672  0.26893700     0.14100
H988        H  0.87403747  0.34768995  0.21819124     0.14700
C989        C  0.79265438  0.50090218  0.19177518    -0.14900
C990        C  0.79931231  0.52643504  0.16613127    -0.30100
H991        H  0.78788999  0.51032443  0.21912755     0.14100
H992        H  0.80350477  0.51793548  0.13840907     0.14700
C993        C  0.86152360  0.42536986  0.11568098    -0.14900
C994        C  0.84446864  0.42417254  0.08327753    -0.30100
H995        H  0.89125967  0.42201237  0.11743492     0.14100
H996        H  0.81471835  0.42619235  0.08090866     0.14700
C997        C  0.02241653  0.72188008  0.99999007    -0.14900
C998        C  0.98543368  0.72546878  0.00066574    -0.30100
H999        H  0.03898638  0.74665781  0.00042813     0.14100
H1000       H  0.97438442  0.75274833  0.00351063     0.14700
C1001       C  0.99711116  0.31401419  0.97674118    -0.14900
C1002       C  0.96012179  0.31686548  0.97781869    -0.30100
H1003       H  0.00846469  0.28735024  0.97088403     0.14100
H1004       H  0.94386484  0.29206441  0.97470637     0.14700
C1005       C  0.03644993  0.49907573  0.02080901    -0.14900
C1006       C  0.03306580  0.52390935  0.99450457    -0.30100
H1007       H  0.04023589  0.50759255  0.04869233     0.14100
H1008       H  0.02848013  0.51513946  0.96679582     0.14700
C1009       C  0.13587512  0.35827585  0.74517419    -0.14900
C1010       C  0.10154738  0.34365199  0.74058900    -0.30100
H1011       H  0.15545371  0.35467586  0.72349879     0.14100
H1012       H  0.08124908  0.34669685  0.76146394     0.14700
C1013       C  0.11689578  0.40903928  0.87210282    -0.14900
C1014       C  0.13405736  0.40769480  0.90445098    -0.30100
H1015       H  0.08693810  0.40835297  0.87066743     0.14100
H1016       H  0.16388859  0.40586342  0.90633239     0.14700
C1017       C  0.18148079  0.48038421  0.79158554    -0.14900
C1018       C  0.18352195  0.50581561  0.81835698    -0.30100
H1019       H  0.18017563  0.48998374  0.76389324     0.14100
H1020       H  0.18560918  0.49672086  0.84617158     0.14700
C1021       C  0.12875860  0.59468957  0.88372493    -0.14900
C1022       C  0.14480394  0.60962738  0.91307626    -0.30100
H1023       H  0.09928793  0.58896782  0.88361820     0.14100
H1024       H  0.17384931  0.61699979  0.91315959     0.14700
C1025       C  0.13099714  0.61865440  0.10122075    -0.14900
C1026       C  0.15337221  0.59095676  0.10982863    -0.30100
H1027       H  0.12245523  0.63804152  0.12158057     0.14100
H1028       H  0.16288348  0.57248828  0.08901699     0.14700
C1029       C  0.15556726  0.34669922  0.23965393    -0.14900
C1030       C  0.12012008  0.33621823  0.24489813    -0.30100
H1031       H  0.17494827  0.34323108  0.26197964     0.14100
H1032       H  0.09999757  0.33979487  0.22341250     0.14700
C1033       C  0.19768659  0.46994795  0.20000726    -0.14900
C1034       C  0.19897347  0.49648413  0.17464094    -0.30100
H1035       H  0.19600997  0.47814701  0.22811191     0.14100
H1036       H  0.20145830  0.48899013  0.14643009     0.14700
C1037       C  0.14167227  0.40161053  0.11195583    -0.14900
C1038       C  0.12649728  0.37439269  0.09258722    -0.30100
H1039       H  0.14475057  0.42854397  0.10012153     0.14100
H1040       H  0.12480823  0.34706516  0.10379432     0.14700
C1041       C  0.54247784  0.51705529  0.98607407    -0.14900
C1042       C  0.54688627  0.48939244  0.00920653    -0.30100
H1043       H  0.54079012  0.54487172  0.99604460     0.14100
H1044       H  0.54851376  0.46154709  0.99932127     0.14700
C1045       C  0.73884170  0.34620460  0.85464058    -0.14900
C1046       C  0.74283957  0.38225500  0.84814473    -0.30100
H1047       H  0.75737338  0.32745820  0.84136796     0.14100
H1048       H  0.72485832  0.40155125  0.86133273     0.14700
C1049       C  0.62651608  0.38247621  0.89890782    -0.14900
C1050       C  0.64234952  0.41534526  0.90194327    -0.30100
H1051       H  0.59686581  0.38074801  0.89428650     0.14100
H1052       H  0.67187463  0.41835509  0.90607336     0.14700
C1053       C  0.75014488  0.34921939  0.12394737    -0.14900
C1054       C  0.75391575  0.38549401  0.12981395    -0.30100
H1055       H  0.76657758  0.33077970  0.14030155     0.14100
H1056       H  0.73856731  0.40431774  0.11315440     0.14700
C1057       C  0.69605128  0.32819020  0.99763558    -0.14900
C1058       C  0.69343179  0.30165669  0.97196817    -0.30100
H1059       H  0.69597907  0.35653007  0.98925887     0.14100
H1060       H  0.69438555  0.27355957  0.98094682     0.14700
C1061       C  0.65680120  0.42136056  0.09260832    -0.14900
C1062       C  0.64066914  0.38858849  0.08936917    -0.30100
H1063       H  0.68580137  0.42546133  0.08742266     0.14100
H1064       H  0.61123297  0.38604656  0.09413792     0.14700
C1065       C  0.73502424  0.65252324  0.86137024    -0.14900
C1066       C  0.73645921  0.64244404  0.82636318    -0.30100
H1067       H  0.75422521  0.64092255  0.88081157     0.14100
H1068       H  0.71707438  0.65401678  0.80706176     0.14700
C1069       C  0.62872615  0.62813669  0.90177149    -0.14900
C1070       C  0.64215638  0.59893972  0.88485116    -0.30100
H1071       H  0.60147781  0.62754876  0.91367866     0.14100
H1072       H  0.66855460  0.60014838  0.87128101     0.14700
C1073       C  0.75507758  0.65297639  0.14807482    -0.14900
C1074       C  0.74546777  0.65200212  0.11271736    -0.30100
H1075       H  0.74212051  0.67294154  0.16541717     0.14100
H1076       H  0.75684797  0.63130596  0.09529112     0.14700
C1077       C  0.69405973  0.68859095  0.99598395    -0.14900
C1078       C  0.68987155  0.71486883  0.97045654    -0.30100
H1079       H  0.69633487  0.66040538  0.98750701     0.14100
H1080       H  0.68746741  0.74297985  0.97902437     0.14700
C1081       C  0.63184359  0.63055105  0.08664088    -0.14900
C1082       C  0.64642292  0.60186508  0.10385430    -0.30100
H1083       H  0.60264896  0.63102184  0.07962448     0.14100
H1084       H  0.67514262  0.60237145  0.11267114     0.14700
C1085       C  0.47828221  0.49305449  0.19192853    -0.14900
C1086       C  0.51500056  0.49812561  0.19623419    -0.30100
H1087       H  0.46176242  0.49179318  0.21621795     0.14100
H1088       H  0.52604828  0.49849906  0.22360250     0.14700
C1089       C  0.46130451  0.46276576  0.96956369    -0.14900
C1090       C  0.46237992  0.49053141  0.99302428    -0.30100
H1091       H  0.45956437  0.43490123  0.97936049     0.14100
H1092       H  0.46409454  0.51844294  0.98334917     0.14700
C1093       C  0.48322451  0.49894862  0.78370777    -0.14900
C1094       C  0.52010862  0.50273037  0.78703442    -0.30100
H1095       H  0.47088758  0.50202635  0.75705469     0.14100
H1096       H  0.53583597  0.50654418  0.76245483     0.14700
C1097       C  0.22752636  0.32997901  0.85933219    -0.14900
C1098       C  0.22501377  0.36614269  0.85227862    -0.30100
H1099       H  0.20911932  0.31127806  0.84509617     0.14100
H1100       H  0.24302869  0.38512288  0.86658452     0.14700
C1101       C  0.33326799  0.37623226  0.89437244    -0.14900
C1102       C  0.35322453  0.38744208  0.86607349    -0.30100
H1103       H  0.32788350  0.39475154  0.91653911     0.14100
H1104       H  0.35687177  0.36966694  0.84298124     0.14700
C1105       C  0.24931605  0.32380404  0.12881791    -0.14900
C1106       C  0.24713627  0.35968565  0.13691748    -0.30100
H1107       H  0.23059373  0.30483498  0.14185949     0.14100
H1108       H  0.26555120  0.37896023  0.12387270     0.14700
C1109       C  0.28562699  0.30966186  0.98280594    -0.14900
C1110       C  0.28741754  0.28239965  0.00755898    -0.30100
H1111       H  0.28699248  0.33774778  0.99188162     0.14100
H1112       H  0.28527691  0.25456776  0.99787150     0.14700
C1113       C  0.35085402  0.36722305  0.07802882    -0.14900
C1114       C  0.37833955  0.37918594  0.09955079    -0.30100
H1115       H  0.33728041  0.38584335  0.05947282     0.14100
H1116       H  0.39128468  0.36122842  0.11906979     0.14700
C1117       C  0.25064604  0.62581621  0.87793554    -0.14900
C1118       C  0.23964272  0.62816616  0.84296583    -0.30100
H1119       H  0.23824988  0.60550748  0.89530896     0.14100
H1120       H  0.25333151  0.64789259  0.82579015     0.14700
C1121       C  0.35182384  0.57158806  0.89384550    -0.14900
C1122       C  0.36704813  0.60337399  0.90436023    -0.30100
H1123       H  0.32207389  0.56905683  0.89084604     0.14100
H1124       H  0.39689135  0.60645046  0.90516550     0.14700
C1125       C  0.25670671  0.61842496  0.16380532    -0.14900
C1126       C  0.26221742  0.62517766  0.12846793    -0.30100
H1127       H  0.27395406  0.63204946  0.18389516     0.14100
H1128       H  0.24521161  0.61151244  0.10823094     0.14700
C1129       C  0.30374711  0.68720106  0.01958786    -0.14900
C1130       C  0.30376306  0.66041708  0.99425245    -0.30100
H1131       H  0.30193326  0.71528861  0.01085698     0.14100
H1132       H  0.30527053  0.63225253  0.00283567     0.14700
C1133       C  0.37211320  0.60554626  0.08712611    -0.14900
C1134       C  0.35568290  0.57273588  0.08952166    -0.30100
H1135       H  0.40202711  0.60761677  0.08638524     0.14100
H1136       H  0.32598330  0.57021849  0.09227973     0.14700
C1137       C  0.48301371  0.00808799  0.95176003    -0.14900
C1138       C  0.50670304  0.98024225  0.95040218    -0.30100
H1139       H  0.49319861  0.03601177  0.95087745     0.14100
H1140       H  0.49639390  0.95234953  0.95096728     0.14700
C1141       C  0.60573185  0.75514870  0.83592719    -0.14900
C1142       C  0.64111094  0.75351267  0.84798155    -0.30100
H1143       H  0.58601056  0.73424404  0.84294347     0.14100
H1144       H  0.65970487  0.77584175  0.84134230     0.14700
C1145       C  0.58347268  0.88981540  0.82613601    -0.14900
C1146       C  0.61372387  0.90252110  0.84311894    -0.30100
H1147       H  0.55942913  0.90693636  0.82225507     0.14100
H1148       H  0.63839668  0.88596934  0.84511365     0.14700
C1149       C  0.35241484  0.74027101  0.85022854    -0.14900
C1150       C  0.33969334  0.73562916  0.88433889    -0.30100
H1151       H  0.35011118  0.71736135  0.83172922     0.14100
H1152       H  0.34040561  0.75803032  0.90324300     0.14700
C1153       C  0.46753122  0.79189807  0.79377653    -0.14900
C1154       C  0.49261607  0.81909021  0.78847049    -0.30100
H1155       H  0.47723737  0.76404551  0.79268028     0.14100
H1156       H  0.48357268  0.84717703  0.78803301     0.14700
C1157       C  0.39799298  0.86981175  0.86871889    -0.14900
C1158       C  0.38866815  0.90161785  0.85341015    -0.30100
H1159       H  0.40171286  0.86810486  0.89782143     0.14100
H1160       H  0.38317249  0.90339108  0.82460367     0.14700
C1161       C  0.60333850  0.24999976  0.84207708    -0.14900
C1162       C  0.63823342  0.25280497  0.85568682    -0.30100
H1163       H  0.58398439  0.27214707  0.84443842     0.14100
H1164       H  0.65625823  0.22940101  0.85287067     0.14700
C1165       C  0.59383196  0.08404867  0.84126447    -0.14900
C1166       C  0.58783495  0.11642090  0.85656056    -0.30100
H1167       H  0.59424216  0.08107326  0.81210321     0.14100
H1168       H  0.58924394  0.11903855  0.88581103     0.14700
C1169       C  0.34140617  0.23558101  0.83912731    -0.14900
C1170       C  0.33036732  0.23947472  0.87377150    -0.30100
H1171       H  0.33592538  0.25781087  0.82046968     0.14100
H1172       H  0.33669995  0.21854019  0.89341021     0.14700
C1173       C  0.46661045  0.19674677  0.79846743    -0.14900
C1174       C  0.49397029  0.17170434  0.79768030    -0.30100
H1175       H  0.47435481  0.22531368  0.79932580     0.14100
H1176       H  0.48670188  0.14300446  0.79639172     0.14700
C1177       C  0.39174019  0.10568649  0.84856776    -0.14900
C1178       C  0.36266295  0.08915492  0.86381593    -0.30100
H1179       H  0.41729380  0.09095717  0.84473463     0.14100
H1180       H  0.33657184  0.10326872  0.86632996     0.14700
C1181       C  0.69705534  0.99510192  0.01139192    -0.14900
C1182       C  0.69832264  0.99685735  0.97511461    -0.30100
H1183       H  0.72304807  0.99271395  0.02599269     0.14100
H1184       H  0.72530171  0.99764151  0.96261951     0.14700
C1185       C  0.29134540  0.00405942  0.01648499    -0.14900
C1186       C  0.29313033  0.97910247  0.99029077    -0.30100
H1187       H  0.28839239  0.03196566  0.00706105     0.14100
H1188       H  0.28841911  0.95078078  0.99751981     0.14700
C1189       C  0.47694458  0.99203800  0.03690687    -0.14900
C1190       C  0.49934707  0.02127921  0.03726465    -0.30100
H1191       H  0.48833984  0.96493111  0.03375883     0.14100
H1192       H  0.48792011  0.04836305  0.04041913     0.14700
C1193       C  0.38765797  0.73720615  0.15175423    -0.14900
C1194       C  0.35248075  0.73149373  0.13995921    -0.30100
H1195       H  0.40873850  0.71711926  0.14715779     0.14100
H1196       H  0.33243269  0.75276496  0.14485898     0.14700
C1197       C  0.39450761  0.87226840  0.13772023    -0.14900
C1198       C  0.39032391  0.90494492  0.15334704    -0.30100
H1199       H  0.39117199  0.86968158  0.10863478     0.14100
H1200       H  0.39190315  0.90801586  0.18244050     0.14700
C1201       C  0.65914567  0.76176159  0.10762931    -0.14900
C1202       C  0.64504342  0.76384739  0.14132064    -0.30100
H1203       H  0.65803340  0.78481099  0.08955071     0.14100
H1204       H  0.64814016  0.74039706  0.15898458     0.14700
C1205       C  0.52192655  0.79811427  0.19050250    -0.14900
C1206       C  0.49338707  0.82172454  0.19105920    -0.30100
H1207       H  0.51571926  0.76919505  0.19218641     0.14100
H1208       H  0.49903773  0.85078527  0.19005990     0.14700
C1209       C  0.58522541  0.88668301  0.12374496    -0.14900
C1210       C  0.59205209  0.91907904  0.13928286    -0.30100
H1211       H  0.58208105  0.88482701  0.09453464     0.14100
H1212       H  0.59728310  0.92111066  0.16819435     0.14700
C1213       C  0.65068653  0.25546257  0.10647868    -0.14900
C1214       C  0.63628253  0.25541270  0.14018563    -0.30100
H1215       H  0.64748420  0.23220119  0.08876855     0.14100
H1216       H  0.63938400  0.28001121  0.15634214     0.14700
C1217       C  0.59267554  0.12258071  0.14454157    -0.14900
C1218       C  0.61935268  0.10776524  0.12462592    -0.30100
H1219       H  0.56921198  0.10619253  0.15297438     0.14100
H1220       H  0.64349663  0.12366216  0.11722271     0.14700
C1221       C  0.35355949  0.23538652  0.11827271    -0.14900
C1222       C  0.37050720  0.23817970  0.15104291    -0.30100
H1223       H  0.35463605  0.21035829  0.10299791     0.14100
H1224       H  0.36965123  0.26429931  0.16485933     0.14700
C1225       C  0.49104477  0.18433377  0.19950711    -0.14900
C1226       C  0.51477364  0.21116488  0.18961662    -0.30100
H1227       H  0.50194243  0.15804581  0.20736154     0.14100
H1228       H  0.50363415  0.23753256  0.18243998     0.14700
C1229       C  0.40655107  0.10432822  0.16177438    -0.14900
C1230       C  0.37562015  0.08763125  0.15031148    -0.30100
H1231       H  0.43273655  0.09007725  0.16229444     0.14100
H1232       H  0.34929639  0.10156906  0.15190648     0.14700
C1233       C  0.53979241  0.96797295  0.45965694    -0.14900
C1234       C  0.50975357  0.98889332  0.46138629    -0.30100
H1235       H  0.56689191  0.98045123  0.45665546     0.14100
H1236       H  0.48255378  0.97655641  0.46402887     0.14700
C1237       C  0.37229691  0.83075251  0.25072030    -0.14900
C1238       C  0.37492651  0.86563510  0.26226814    -0.30100
H1239       H  0.35327821  0.81244203  0.26413234     0.14100
H1240       H  0.39470286  0.88397723  0.25015760     0.14700
C1241       C  0.40114157  0.89570164  0.37453209    -0.14900
C1242       C  0.43061652  0.87959399  0.36004581    -0.30100
H1243       H  0.40094663  0.90260809  0.40310942     0.14100
H1244       H  0.42963610  0.87019521  0.33217488     0.14700
C1245       C  0.25318824  0.12375490  0.34484300    -0.14900
C1246       C  0.24567887  0.13560745  0.37868367    -0.30100
H1247       H  0.23232849  0.12758592  0.32394448     0.14100
H1248       H  0.26522687  0.13132996  0.40040678     0.14700
C1249       C  0.36475244  0.12038237  0.26270587    -0.14900
C1250       C  0.36944642  0.15674585  0.25849148    -0.30100
H1251       H  0.38049926  0.10164857  0.24633734     0.14100
H1252       H  0.35373570  0.17519852  0.27521801     0.14700
C1253       C  0.30893159  0.00519416  0.30551009    -0.14900
C1254       C  0.33748998  0.98179054  0.30930297    -0.30100
H1255       H  0.28130661  0.99407306  0.30235496     0.14100
H1256       H  0.36532653  0.99251764  0.31198082     0.14700
C1257       C  0.41775336  0.08172623  0.35751072    -0.14900
C1258       C  0.38414466  0.08206001  0.37229637    -0.30100
H1259       H  0.42109320  0.08111193  0.32845388     0.14100
H1260       H  0.38144910  0.08487876  0.40136893     0.14700
C1261       C  0.66882934  0.87726131  0.23287523    -0.14900
C1262       C  0.63245690  0.86909125  0.22959866    -0.30100
H1263       H  0.68820905  0.86422731  0.21493724     0.14100
H1264       H  0.61275518  0.88226060  0.24710643     0.14700
C1265       C  0.62174888  0.90335332  0.33468272    -0.14900
C1266       C  0.61365834  0.87132500  0.35049184    -0.30100
H1267       H  0.60123642  0.92469631  0.33247860     0.14100
H1268       H  0.63371957  0.84945423  0.35117368     0.14700
C1269       C  0.64604090  0.13484472  0.24113434    -0.14900
C1270       C  0.63345718  0.16933598  0.24329642    -0.30100
H1271       H  0.63694262  0.11712802  0.21922051     0.14100
H1272       H  0.64285809  0.18678381  0.26531579     0.14700
C1273       C  0.74429930  0.15413770  0.33596315    -0.14900
C1274       C  0.74415283  0.16653305  0.37050055    -0.30100
H1275       H  0.76745745  0.16148702  0.31898990     0.14100
H1276       H  0.72265818  0.15843461  0.38877943     0.14700
C1277       C  0.71266985  0.02657915  0.29360061    -0.14900
C1278       C  0.68757212  0.99956847  0.28741058    -0.30100
H1279       H  0.74084453  0.01915725  0.30010896     0.14100
H1280       H  0.65945876  0.00674618  0.28038877     0.14700
C1281       C  0.61213405  0.09746028  0.37727669    -0.14900
C1282       C  0.61845047  0.09210286  0.34208884    -0.30100
H1283       H  0.63454829  0.10336907  0.39600139     0.14100
H1284       H  0.59612586  0.08409737  0.32393654     0.14700
C1285       C  0.98686652  0.99135614  0.68012559    -0.14900
C1286       C  0.98214083  0.02765858  0.67807527    -0.30100
H1287       H  0.98718027  0.97872412  0.70665620     0.14100
H1288       H  0.98136387  0.04304697  0.70309141     0.14700
C1289       C  0.02677943  0.00331884  0.28931836    -0.14900
C1290       C  0.99284953  0.01605234  0.28253403    -0.30100
H1291       H  0.04903205  0.02312734  0.29275580     0.14100
H1292       H  0.97064830  0.99619847  0.27927332     0.14700
C1293       C  0.03621158  0.95982822  0.46821086    -0.14900
C1294       C  0.00545116  0.96483560  0.48727419    -0.30100
H1295       H  0.06215797  0.95434752  0.48209849     0.14100
H1296       H  0.97929008  0.96981523  0.47362668     0.14700
C1297       C  0.87269594  0.87683579  0.57500081    -0.14900
C1298       C  0.90579836  0.86215368  0.58195649    -0.30100
H1299       H  0.86970808  0.90624667  0.57325099     0.14100
H1300       H  0.90854787  0.83301742  0.58630165     0.14700
C1301       C  0.76346943  0.87544933  0.36741339    -0.14900
C1302       C  0.76061153  0.88932285  0.33354078    -0.30100
H1303       H  0.74115202  0.87794635  0.38638227     0.14100
H1304       H  0.78469825  0.88821767  0.31630564     0.14700
C1305       C  0.83374209  0.81704583  0.47198614    -0.14900
C1306       C  0.80522505  0.80884414  0.49403820    -0.30100
H1307       H  0.86128597  0.82061621  0.48324393     0.14100
H1308       H  0.77833969  0.80461356  0.48141392     0.14700
C1309       C  0.89980228  0.87955782  0.38574674    -0.14900
C1310       C  0.93032650  0.86252614  0.37490535    -0.30100
H1311       H  0.90023775  0.90899728  0.38915207     0.14100
H1312       H  0.92992253  0.83344590  0.36944837     0.14700
C1313       C  0.10554185  0.84649512  0.57510867    -0.14900
C1314       C  0.09723837  0.87322732  0.59830827    -0.30100
H1315       H  0.08476131  0.83650267  0.55606158     0.14100
H1316       H  0.11719933  0.88306144  0.61816946     0.14700
C1317       C  0.26494276  0.83523626  0.36521628    -0.14900
C1318       C  0.26739666  0.86910746  0.35083542    -0.30100
H1319       H  0.28970101  0.81869706  0.36594100     0.14100
H1320       H  0.24358301  0.88659230  0.34969613     0.14700
C1321       C  0.20615996  0.78357693  0.47650757    -0.14900
C1322       C  0.17654438  0.78459076  0.49842400    -0.30100
H1323       H  0.23336882  0.78196130  0.48881557     0.14100
H1324       H  0.14917296  0.78612151  0.48637307     0.14700
C1325       C  0.12760813  0.83881401  0.39260601    -0.14900
C1326       C  0.11570509  0.85451208  0.36194500    -0.30100
H1327       H  0.11003877  0.83699840  0.41613806     0.14100
H1328       H  0.13296111  0.85484547  0.33811014     0.14700
C1329       C  0.21039398  0.48763711  0.49879891    -0.14900
C1330       C  0.20680383  0.52414700  0.49731432    -0.30100
H1331       H  0.23800407  0.47640353  0.49774350     0.14100
H1332       H  0.23190382  0.54046405  0.49731589     0.14700
C1333       C  0.97882387  0.54573963  0.51414277    -0.14900
C1334       C  0.00082692  0.54458666  0.48527741    -0.30100
H1335       H  0.99072435  0.54643598  0.54116274     0.14100
H1336       H  0.98891823  0.54446962  0.45824691     0.14700
C1337       C  0.78841374  0.51416533  0.49116370    -0.14900
C1338       C  0.79176786  0.47763809  0.49281223    -0.30100
H1339       H  0.76104059  0.52522375  0.48653125     0.14100
H1340       H  0.76667827  0.46136259  0.49146675     0.14700
C1341       C  0.86919078  0.66156249  0.24990106    -0.14900
C1342       C  0.85210028  0.62880446  0.24432942    -0.30100
H1343       H  0.86969099  0.68084998  0.22768326     0.14100
H1344       H  0.85230686  0.60822614  0.26507439     0.14700
C1345       C  0.88251223  0.75508469  0.35194017    -0.14900
C1346       C  0.84867928  0.76995329  0.34997726    -0.30100
H1347       H  0.90287143  0.76612831  0.37066641     0.14100
H1348       H  0.82836160  0.75789448  0.33177079     0.14700
C1349       C  0.89082710  0.65322703  0.41337001    -0.14900
C1350       C  0.89860792  0.63793238  0.38151254    -0.30100
H1351       H  0.88870874  0.68263774  0.41590951     0.14100
H1352       H  0.89843612  0.60841709  0.37891030     0.14700
C1353       C  0.13662460  0.64048332  0.24716978    -0.14900
C1354       C  0.14783102  0.60521949  0.24489106    -0.30100
H1355       H  0.14314322  0.65868220  0.22494194     0.14100
H1356       H  0.14118964  0.58566337  0.26563417     0.14700
C1357       C  0.13261102  0.73444713  0.34811957    -0.14900
C1358       C  0.16941355  0.73638257  0.35455133    -0.30100
H1359       H  0.11435530  0.75287241  0.36217130     0.11700
H1360       H  0.18742263  0.71769959  0.34056393     0.14700
C1361       C  0.99061956  0.69221393  0.31707959    -0.14900
C1362       C  0.01517548  0.69080806  0.28976140    -0.30100
H1363       H  0.00086523  0.69309471  0.34468569     0.14100
H1364       H  0.00472308  0.69004069  0.26221452     0.14700
C1365       C  0.08593411  0.63007497  0.37264019    -0.14900
C1366       C  0.10205688  0.64419145  0.40217515    -0.30100
H1367       H  0.07565758  0.60215094  0.37251560     0.14100
H1368       H  0.11414502  0.67140938  0.40185802     0.14700
C1369       C  0.85381617  0.66351755  0.74106150    -0.14900
C1370       C  0.84272022  0.62824051  0.74308737    -0.30100
H1371       H  0.84860241  0.68112457  0.76405905     0.14100
H1372       H  0.84906171  0.60916219  0.72175587     0.14700
C1373       C  0.85756028  0.76424845  0.65084154    -0.14900
C1374       C  0.85522505  0.76720174  0.61437356    -0.30100
H1375       H  0.84001902  0.78154254  0.66701395     0.14100
H1376       H  0.87283204  0.75054613  0.59766180     0.14700
C1377       C  0.89576164  0.66269800  0.61006617    -0.14900
C1378       C  0.86622533  0.64598646  0.59527127    -0.30100
H1379       H  0.92073621  0.66685050  0.59459360     0.14100
H1380       H  0.84066891  0.64358112  0.61017137     0.14700
C1381       C  0.10558075  0.63800330  0.74737920    -0.14900
C1382       C  0.13814426  0.61964800  0.75003977    -0.30100
H1383       H  0.08753375  0.64038152  0.77026506     0.14100
H1384       H  0.15501410  0.61792419  0.72600675     0.14700
C1385       C  0.13078478  0.73163639  0.65084972    -0.14900
C1386       C  0.13021564  0.74010003  0.61528795    -0.30100
H1387       H  0.15099012  0.74476712  0.66841708     0.14100
H1388       H  0.10956958  0.72783542  0.59770679     0.14700
C1389       C  0.97683862  0.70609394  0.69807200    -0.14900
C1390       C  0.00179688  0.69772688  0.67251933    -0.30100
H1391       H  0.98661591  0.70849959  0.72578077     0.14100
H1392       H  0.99250108  0.69507889  0.64467872     0.14700
C1393       C  0.08330715  0.62453767  0.61487582    -0.14900
C1394       C  0.08948258  0.64074074  0.58316812    -0.30100
H1395       H  0.08347850  0.59493668  0.61664663     0.14100
H1396       H  0.09034087  0.67012424  0.58072606     0.14700
C1397       C  0.48483335  0.19731557  0.50434692    -0.14900
C1398       C  0.49578751  0.19320900  0.46997428    -0.30100
H1399       H  0.48336586  0.22464455  0.51546762     0.14100
H1400       H  0.49994678  0.21754617  0.45377967     0.14700
C1401       C  0.44486618  0.97740906  0.54115901    -0.14900
C1402       C  0.47175400  0.00185316  0.53546874    -0.30100
H1403       H  0.41670292  0.98648879  0.54516804     0.14100
H1404       H  0.50002895  0.99279126  0.53244164     0.14700
C1405       C  0.48316519  0.79367099  0.51353453    -0.14900
C1406       C  0.51743638  0.79187328  0.50061534    -0.30100
H1407       H  0.46051822  0.79127955  0.49414867     0.14100
H1408       H  0.54005709  0.79269069  0.52015463     0.14700
C1409       C  0.23396562  0.84705017  0.64821643    -0.14900
C1410       C  0.23726575  0.83115319  0.61527999    -0.30100
H1411       H  0.20718160  0.84574906  0.66107618     0.14100
H1412       H  0.26311857  0.83194320  0.60102359     0.14700
C1413       C  0.31351919  0.85242946  0.75842693    -0.14900
C1414       C  0.35034829  0.84872584  0.76300677    -0.30100
H1415       H  0.29508220  0.83662548  0.77528647     0.14100
H1416       H  0.36885732  0.86439035  0.74609492     0.14700
C1417       C  0.38519029  0.86382283  0.65167508    -0.14900
C1418       C  0.36666569  0.89306646  0.66325108    -0.30100
H1419       H  0.37211526  0.83707280  0.65199152     0.14100
H1420       H  0.37962953  0.91983875  0.66405307     0.14700
C1421       C  0.22342702  0.10382192  0.64703856    -0.14900
C1422       C  0.22330147  0.13738313  0.63119565    -0.30100
H1423       H  0.20019777  0.08537559  0.64396737     0.14100
H1424       H  0.24743328  0.15473466  0.63534648     0.14700
C1425       C  0.31742073  0.12468299  0.74592016    -0.14900
C1426       C  0.35387751  0.13322821  0.74764108    -0.30100
H1427       H  0.29867634  0.13855197  0.76389905     0.14100
H1428       H  0.37297302  0.11925036  0.73011178     0.14700
C1429       C  0.27076916  0.96938756  0.69877311    -0.14900
C1430       C  0.29649559  0.99648218  0.70153214    -0.30100
H1431       H  0.24221499  0.97724213  0.69510720     0.14100
H1432       H  0.32521189  0.98902242  0.70520114     0.14700
C1433       C  0.36008007  0.08606247  0.64464795    -0.14900
C1434       C  0.36631373  0.10933536  0.61737980    -0.30100
H1435       H  0.38271890  0.07068271  0.65640339     0.14100
H1436       H  0.34440263  0.12538313  0.60538794     0.14700
C1437       C  0.73625688  0.86470783  0.63765683    -0.14900
C1438       C  0.74027767  0.84858697  0.60497083    -0.30100
H1439       H  0.76001146  0.86533987  0.65581421     0.14100
H1440       H  0.71676071  0.84639683  0.58691807     0.14700
C1441       C  0.62637752  0.87172929  0.72382394    -0.14900
C1442       C  0.61842079  0.83594107  0.72796171    -0.30100
H1443       H  0.61216533  0.89160563  0.74023193     0.14100
H1444       H  0.63264469  0.81627928  0.71128150     0.14700
C1445       C  0.60352113  0.90579905  0.61717137    -0.14900
C1446       C  0.57217804  0.90064230  0.63561316    -0.30100
H1447       H  0.60312522  0.90426746  0.58784788     0.14100
H1448       H  0.57268134  0.89972343  0.66491611     0.14700
C1449       C  0.72019791  0.12463744  0.63902877    -0.14900
C1450       C  0.71955071  0.15737277  0.62164489    -0.30100
H1451       H  0.74549808  0.10935961  0.64102324     0.14100
H1452       H  0.69358905  0.17202188  0.62079513     0.14700
C1453       C  0.61638671  0.12170285  0.73289678    -0.14900
C1454       C  0.61665824  0.15698432  0.74327003    -0.30100
H1455       H  0.59856209  0.10237481  0.74646919     0.14100
H1456       H  0.63395981  0.17605373  0.72868500     0.14700
C1457       C  0.65698347  0.00775029  0.68227468    -0.14900
C1458       C  0.68535020  0.98406509  0.68035286    -0.30100
H1459       H  0.62900216  0.99717407  0.68338316     0.14100
H1460       H  0.71327875  0.99486488  0.67964086     0.14700
C1461       C  0.58857398  0.08751241  0.62035861    -0.14900
C1462       C  0.55653945  0.09767613  0.63481919    -0.30100
H1463       H  0.59057148  0.08303219  0.59143339     0.14100
H1464       H  0.55486052  0.10455984  0.66328925     0.14700
loop_ 
_geom_bond_atom_site_label_1 
_geom_bond_atom_site_label_2 
_geom_bond_distance 
_geom_bond_site_symmetry_2 
_ccdc_geom_bond_type 
C1            C2   1.547       .  S
C1            C7   1.543       .  S
C1            C5   1.529       .  S
C1         C1449   1.532       .  S
C2            H9   1.083       .  S
C2            C3   1.376       .  D
C3            C4   1.547       .  S
C3         C1457   1.508       .  S
C4            C8   1.542       .  S
C4            C6   1.535       .  S
C4           H10   1.111       .  S
C5           H11   1.087       .  S
C5            C6   1.359       .  D
C6         C1461   1.463       .  S
C7           H12   1.085       .  S
C7            C8   1.377       .  D
C8         C1453   1.503       .  S
C13          C14   1.546       .  S
C13          C19   1.536       .  S
C13          C17   1.548       .  S
C13        C1437   1.544       .  S
C14          H21   1.086       .  S
C14          C15   1.376       .  D
C15          C16   1.541       .  S
C15        C1441   1.502       .  S
C16          C20   1.551       .  S
C16          C18   1.537       .  S
C16          H22   1.108       .  S
C17          H23   1.082       .  S
C17          C18   1.366       .  D
C18        C1445   1.479       .  S
C19          H24   1.087       .  S
C19          C20   1.368       .  D
C20        C1458   1.505       .  S
C25          C26   1.534       .  S
C25          C31   1.545       .  S
C25          C29   1.526       .  S
C25        C1421   1.530       .  S
C26          H33   1.087       .  S
C26          C27   1.368       .  D
C27          C28   1.552       .  S
C27        C1425   1.498       .  S
C28          C32   1.564       .  S
C28          C30   1.532       .  S
C28          H34   1.111       .  S
C29          H35   1.084       .  S
C29          C30   1.363       .  D
C30        C1433   1.471       .  S
C31          H36   1.083       .  S
C31          C32   1.382       .  D
C32        C1430   1.528   1_545  S
C37          C38   1.534       .  S
C37          C43   1.530       .  S
C37          C41   1.539       .  S
C37        C1409   1.530       .  S
C38          H45   1.087       .  S
C38          C39   1.371       .  D
C39          C40   1.564       .  S
C39        C1429   1.517       .  S
C40          C44   1.559       .  S
C40          C42   1.532       .  S
C40          H46   1.110       .  S
C41          H47   1.083       .  S
C41          C42   1.369       .  D
C42        C1418   1.472       .  S
C43          H48   1.087       .  S
C43          C44   1.367       .  D
C44        C1413   1.495       .  S
In49         O51   2.226       .  S
In49         O52   2.236       .  S
In49         O60   2.236       .  S
In49         O54   2.249       .  S
In49         O56   2.250       .  S
In49         O57   2.247       .  S
In49         O58   2.245       .  S
In49         O61   2.240       .  S
C50          O56   1.255       .  A
C50          O58   1.259       .  A
C50        C1401   1.469       .  S
O51          C59   1.261       .  A
O52          C59   1.262       .  A
C53          O60   1.259       .  A
C53          O54   1.259       .  A
C53        C1405   1.468       .  S
C55          O57   1.261       .  A
C55          O61   1.259       .  A
C55        C1446   1.469       .  S
C59        C1417   1.464       .  S
In62         O64   2.204       .  S
In62         O65   2.250       .  S
In62         O73   2.249       .  S
In62         O67   2.225       .  S
In62         O69   2.243       .  S
In62         O70   2.207       .  S
In62         O71   2.247       .  S
In62         O74   2.223       .  S
C63          O69   1.257       .  A
C63          O71   1.256       .  A
C63        C1402   1.464       .  S
O64          C72   1.259       .  A
O65          C72   1.262       .  A
C66          O73   1.258       .  A
C66          O67   1.260       .  A
C66        C1397   1.471       .  S
C68          O70   1.262       .  A
C68          O74   1.262       .  A
C68        C1434   1.454       .  S
C72        C1462   1.465       .  S
C75          C76   1.549       .  S
C75          C81   1.535       .  S
C75          C79   1.528       .  S
C75        C1381   1.529       .  S
C76          H83   1.085       .  S
C76          C77   1.379       .  D
C77          C78   1.550       .  S
C77        C1390   1.515       .  S
C78          C82   1.549       .  S
C78          C80   1.541       .  S
C78          H84   1.107       .  S
C79          H85   1.087       .  S
C79          C80   1.360       .  D
C80        C1393   1.470       .  S
C81          H86   1.086       .  S
C81          C82   1.369       .  D
C82        C1385   1.497       .  S
C87          C88   1.533       .  S
C87          C93   1.526       .  S
C87          C91   1.539       .  S
C87        C1369   1.526       .  S
C88          H95   1.087       .  S
C88          C89   1.369       .  D
C89          C90   1.561       .  S
C89        C1373   1.504       .  S
C90          C94   1.566       .  S
C90          C92   1.530       .  S
C90          H96   1.111       .  S
C91          H97   1.083       .  S
C91          C92   1.368       .  D
C92        C1377   1.471       .  S
C93          H98   1.087       .  S
C93          C94   1.366       .  D
C94        C1389   1.507       .  S
C99         C100   1.540       .  S
C99         C105   1.540       .  S
C99         C103   1.536       .  S
C99        C1353   1.534       .  S
C100        H107   1.085       .  S
C100        C101   1.374       .  D
C101        C102   1.547       .  S
C101       C1357   1.504       .  S
C102        C106   1.555       .  S
C102        C104   1.529       .  S
C102        H108   1.110       .  S
C103        H109   1.082       .  S
C103        C104   1.356       .  D
C104       C1365   1.454       .  S
C105        H110   1.086       .  S
C105        C106   1.373       .  D
C106       C1362   1.509       .  S
C111        C112   1.537       .  S
C111        C117   1.547       .  S
C111        C115   1.543       .  S
C111       C1341   1.541       .  S
C112        H119   1.081       .  S
C112        C113   1.356       .  D
C113        C114   1.536       .  S
C113       C1350   1.470       .  S
C114        C118   1.549       .  S
C114        C116   1.539       .  S
C114        H120   1.111       .  S
C115        H121   1.085       .  S
C115        C116   1.376       .  D
C116       C1345   1.498       .  S
C117        H122   1.084       .  S
C117        C118   1.378       .  D
C118       C1361   1.511       .  S
In123       O125   2.221       .  S
In123       O126   2.261       .  S
In123       O134   2.255       .  S
In123       O128   2.228       .  S
In123       O130   2.239       .  S
In123       O131   2.234       .  S
In123       O132   2.246       .  S
In123       O135   2.219       .  S
C124        O130   1.259       .  A
C124        O132   1.257       .  A
C124       C1333   1.468       .  S
O125        C133   1.259       .  A
O126        C133   1.260       .  A
C127        O134   1.259       .  A
C127        O128   1.258       .  A
C127       C1337   1.475       .  S
C129        O131   1.261       .  A
C129        O135   1.260       .  A
C129       C1378   1.460       .  S
C133       C1349   1.472       .  S
In136       O138   2.215       .  S
In136       O139   2.225       .  S
In136       O147   2.261       .  S
In136       O141   2.240       .  S
In136       O143   2.246       .  S
In136       O144   2.246       .  S
In136       O145   2.256       .  S
In136       O148   2.193       .  S
C137        O143   1.257       .  A
C137        O145   1.259       .  A
C137       C1334   1.469       .  S
O138        C146   1.265       .  A
O139        C146   1.261       .  A
C140        O147   1.253       .  A
C140        O141   1.256       .  A
C140       C1330   1.482       .  S
C142        O144   1.261       .  A
C142        O148   1.259       .  A
C142       C1366   1.459       .  S
C146       C1394   1.459       .  S
C149        C150   1.533       .  S
C149        C155   1.533       .  S
C149        C153   1.540       .  S
C149       C1317   1.532       .  S
C150        H157   1.086       .  S
C150        C151   1.369       .  D
C151        C152   1.552       .  S
C151       C1358   1.494       .  S
C152        C156   1.558       .  S
C152        C154   1.528       .  S
C152        H158   1.110       .  S
C153        H159   1.082       .  S
C153        C154   1.365       .  D
C154       C1325   1.466       .  S
C155        H160   1.087       .  S
C155        C156   1.370       .  D
C156       C1321   1.504       .  S
C161        C162   1.542       .  S
C161        C167   1.537       .  S
C161        C165   1.531       .  S
C161       C1410   1.526       .  S
C162        H169   1.083       .  S
C162        C163   1.378       .  D
C163        C164   1.551       .  S
C163       C1322   1.513       .  S
C164        C168   1.547       .  S
C164        C166   1.531       .  S
C164        H170   1.112       .  S
C165        H171   1.085       .  S
C165        C166   1.364       .  D
C166       C1313   1.473       .  S
C167        H172   1.084       .  S
C167        C168   1.373       .  D
C168       C1386   1.501       .  S
C173        C174   1.538       .  S
C173        C179   1.531       .  S
C173        C177   1.525       .  S
C173       C1301   1.516       .  S
C174        H181   1.085       .  S
C174        C175   1.375       .  D
C175        C176   1.559       .  S
C175       C1305   1.513       .  S
C176        C180   1.555       .  S
C176        C178   1.546       .  S
C176        H182   1.109       .  S
C177        H183   1.087       .  S
C177        C178   1.360       .  D
C178       C1309   1.472       .  S
C179        H184   1.086       .  S
C179        C180   1.367       .  D
C180       C1346   1.494       .  S
C185        C186   1.540       .  S
C185        C191   1.536       .  S
C185        C189   1.537       .  S
C185       C1438   1.533       .  S
C186        H193   1.085       .  S
C186        C187   1.378       .  D
C187        C188   1.555       .  S
C187       C1374   1.511       .  S
C188        C192   1.553       .  S
C188        C190   1.537       .  S
C188        H194   1.110       .  S
C189        H195   1.087       .  S
C189        C190   1.366       .  D
C190       C1297   1.470       .  S
C191        H196   1.087       .  S
C191        C192   1.366       .  D
C192       C1306   1.508       .  S
In197       O199   2.222   1_455  S
In197       O200   2.262   1_455  S
In197       O208   2.250       .  S
In197       O202   2.235       .  S
In197       O204   2.242       .  S
In197       O205   2.236       .  S
In197       O206   2.239       .  S
In197       O209   2.205       .  S
C198        O204   1.259       .  A
C198        O206   1.256       .  A
C198       C1293   1.463       .  S
O199        C207   1.259       .  A
O200        C207   1.260       .  A
C201        O208   1.261       .  A
C201        O202   1.258       .  A
C201       C1289   1.469   1_565  S
C203        O205   1.263       .  A
C203        O209   1.260       .  A
C203       C1326   1.458       .  S
C207       C1310   1.473       .  S
In210       O212   2.226   1_655  S
In210       O213   2.219   1_655  S
In210       O221   2.218   1_655  S
In210       O215   2.247       .  S
In210       O217   2.259       .  S
In210       O218   2.242       .  S
In210       O219   2.227   1_655  S
In210       O222   2.222       .  S
C211        O217   1.257   1_455  A
C211        O219   1.254       .  A
C211       C1294   1.464       .  S
O212        C220   1.261       .  A
O213        C220   1.263       .  A
C214        O221   1.261   1_655  A
C214        O215   1.259       .  A
C214       C1285   1.473       .  S
C216        O218   1.261       .  A
C216        O222   1.259       .  A
C216       C1298   1.463       .  S
C220       C1314   1.459       .  S
C223        C224   1.529       .  S
C223        C229   1.537       .  S
C223        C227   1.537       .  S
C223       C1273   1.532       .  S
C224        H231   1.086       .  S
C224        C225   1.370       .  D
C225        C226   1.547       .  S
C225       C1269   1.491       .  S
C226        C230   1.554       .  S
C226        C228   1.529       .  S
C226        H232   1.109       .  S
C227        H233   1.078       .  S
C227        C228   1.366       .  D
C228       C1282   1.474       .  S
C229        H234   1.086       .  S
C229        C230   1.373       .  D
C230       C1277   1.508       .  S
C235        C236   1.538       .  S
C235        C241   1.536       .  S
C235        C239   1.536       .  S
C235       C1302   1.529       .  S
C236        H243   1.084       .  S
C236        C237   1.377       .  D
C237        C238   1.559       .  S
C237       C1278   1.513       .  S
C238        C242   1.545       .  S
C238        C240   1.529       .  S
C238        H244   1.111       .  S
C239        H245   1.082       .  S
C239        C240   1.361       .  D
C240       C1265   1.470       .  S
C241        H246   1.087       .  S
C241        C242   1.367       .  D
C242       C1261   1.492       .  S
C247        C248   1.535       .  S
C247        C253   1.538       .  S
C247        C251   1.543       .  S
C247       C1245   1.537       .  S
C248        H255   1.086       .  S
C248        C249   1.369       .  D
C249        C250   1.549       .  S
C249       C1253   1.503       .  S
C250        C254   1.545       .  S
C250        C252   1.536       .  S
C250        H256   1.108       .  S
C251        H257   1.082       .  S
C251        C252   1.364       .  D
C252       C1258   1.473       .  S
C253        H258   1.086       .  S
C253        C254   1.373       .  D
C254       C1249   1.499       .  S
C259        C260   1.540       .  S
C259        C265   1.540       .  S
C259        C263   1.533       .  S
C259       C1318   1.521       .  S
C260        H267   1.085       .  S
C260        C261   1.374       .  D
C261        C262   1.544       .  S
C261       C1238   1.499       .  S
C262        C266   1.551       .  S
C262        C264   1.539       .  S
C262        H268   1.111       .  S
C263        H269   1.087       .  S
C263        C264   1.361       .  D
C264       C1241   1.470       .  S
C265        H270   1.084       .  S
C265        C266   1.372       .  D
C266       C1254   1.509       .  S
In271       O273   2.207       .  S
In271       O274   2.247       .  S
In271       O282   2.249       .  S
In271       O276   2.234       .  S
In271       O278   2.226       .  S
In271       O279   2.252       .  S
In271       O280   2.238       .  S
In271       O283   2.223       .  S
C272        O278   1.260       .  A
C272        O280   1.258       .  A
C272       C1233   1.462       .  S
O273        C281   1.257       .  A
O274        C281   1.263       .  A
C275        O282   1.260       .  A
C275        O276   1.256       .  A
C275       C1406   1.466       .  S
C277        O279   1.263       .  A
C277        O283   1.259       .  A
C277       C1242   1.468       .  S
C281       C1266   1.461       .  S
In284       O286   2.213       .  S
In284       O287   2.239       .  S
In284       O295   2.247       .  S
In284       O289   2.233       .  S
In284       O291   2.258       .  S
In284       O292   2.221       .  S
In284       O293   2.233       .  S
In284       O296   2.205       .  S
C285        O291   1.257       .  A
C285        O293   1.253       .  A
C285       C1234   1.463   1_545  S
O286        C294   1.260       .  A
O287        C294   1.262       .  A
C288        O295   1.256       .  A
C288        O289   1.262       .  A
C288       C1398   1.478       .  S
C290        O292   1.266       .  A
C290        O296   1.263       .  A
C290       C1281   1.455       .  S
C294       C1257   1.464       .  S
C297        C298   1.538       .  S
C297        C303   1.533       .  S
C297        C301   1.544       .  S
C297       C1222   1.534       .  S
C298        H305   1.083       .  S
C298        C299   1.377       .  D
C299        C300   1.555       .  S
C299       C1225   1.513       .  S
C300        C304   1.549       .  S
C300        C302   1.524       .  S
C300        H306   1.111       .  S
C301        H307   1.081       .  S
C301        C302   1.365       .  D
C302       C1229   1.469       .  S
C303        H308   1.087       .  S
C303        C304   1.367       .  D
C304       C1250   1.493       .  S
C309        C310   1.529       .  S
C309        C315   1.536       .  S
C309        C313   1.538       .  S
C309       C1214   1.525       .  S
C310        H317   1.087       .  S
C310        C311   1.363       .  D
C311        C312   1.544       .  S
C311       C1270   1.478       .  S
C312        C316   1.556       .  S
C312        C314   1.531       .  S
C312        H318   1.110       .  S
C313        H319   1.081       .  S
C313        C314   1.370       .  D
C314       C1217   1.475       .  S
C315        H320   1.086       .  S
C315        C316   1.372       .  D
C316       C1226   1.506       .  S
C321        C322   1.534       .  S
C321        C327   1.534       .  S
C321        C325   1.539       .  S
C321       C1202   1.530       .  S
C322        H329   1.087       .  S
C322        C323   1.369       .  D
C323        C324   1.557       .  S
C323       C1205   1.506       .  S
C324        C328   1.550       .  S
C324        C326   1.536       .  S
C324        H330   1.110       .  S
C325        H331   1.082       .  S
C325        C326   1.361       .  D
C326       C1209   1.467       .  S
C327        H332   1.085       .  S
C327        C328   1.373       .  D
C328       C1262   1.501       .  S
C333        C334   1.534       .  S
C333        C339   1.541       .  S
C333        C337   1.530       .  S
C333       C1193   1.525       .  S
C334        H341   1.086       .  S
C334        C335   1.371       .  D
C335        C336   1.553       .  S
C335       C1237   1.499       .  S
C336        C340   1.554       .  S
C336        C338   1.540       .  S
C336        H342   1.107       .  S
C337        H343   1.087       .  S
C337        C338   1.360       .  D
C338       C1197   1.473       .  S
C339        H344   1.084       .  S
C339        C340   1.376       .  D
C340       C1206   1.513       .  S
In345       O347   2.221   1_565  S
In345       O348   2.227   1_565  S
In345       O356   2.222   1_565  S
In345       O350   2.262       .  S
In345       O352   2.250       .  S
In345       O353   2.263       .  S
In345       O354   2.246   1_565  S
In345       O357   2.220       .  S
C346        O352   1.255       .  A
C346        O354   1.257   1_565  A
C346       C1189   1.467       .  S
O347        C355   1.264       .  A
O348        C355   1.263       .  A
C349        O356   1.256       .  A
C349        O350   1.258   1_545  A
C349       C1185   1.464       .  S
C351        O353   1.260       .  A
C351        O357   1.258       .  A
C351       C1198   1.471       .  S
C355       C1230   1.463       .  S
In358       O360   2.211   1_545  S
In358       O361   2.258   1_545  S
In358       O369   2.244   1_545  S
In358       O363   2.235       .  S
In358       O365   2.241   1_545  S
In358       O366   2.237       .  S
In358       O367   2.250       .  S
In358       O370   2.224       .  S
C359        O365   1.257   1_545  A
C359        O367   1.256       .  A
C359       C1190   1.467       .  S
O360        C368   1.259       .  A
O361        C368   1.262       .  A
C362        O369   1.259       .  A
C362        O363   1.261   1_565  A
C362       C1181   1.478       .  S
C364        O366   1.263       .  A
C364        O370   1.259       .  A
C364       C1218   1.461       .  S
C368       C1210   1.468       .  S
C371        C372   1.539       .  S
C371        C377   1.532       .  S
C371        C375   1.543       .  S
C371       C1169   1.536       .  S
C372        H379   1.086       .  S
C372        C373   1.375       .  D
C373        C374   1.551       .  S
C373       C1426   1.506       .  S
C374        C378   1.555       .  S
C374        C376   1.531       .  S
C374        H380   1.110       .  S
C375        H381   1.083       .  S
C375        C376   1.370       .  D
C376       C1177   1.472       .  S
C377        H382   1.087       .  S
C377        C378   1.367       .  D
C378       C1173   1.509       .  S
C383        C384   1.542       .  S
C383        C389   1.532       .  S
C383        C387   1.525       .  S
C383       C1161   1.521       .  S
C384        H391   1.084       .  S
C384        C385   1.379       .  D
C385        C386   1.559       .  S
C385       C1174   1.518       .  S
C386        C390   1.555       .  S
C386        C388   1.543       .  S
C386        H392   1.109       .  S
C387        H393   1.087       .  S
C387        C388   1.356       .  D
C388       C1166   1.468       .  S
C389        H394   1.086       .  S
C389        C390   1.368       .  D
C390       C1454   1.499       .  S
C395        C396   1.538       .  S
C395        C401   1.543       .  S
C395        C399   1.539       .  S
C395       C1149   1.542       .  S
C396        H403   1.086       .  S
C396        C397   1.372       .  D
C397        C398   1.552       .  S
C397       C1153   1.509       .  S
C398        C402   1.545       .  S
C398        C400   1.538       .  S
C398        H404   1.110       .  S
C399        H405   1.082       .  S
C399        C400   1.362       .  D
C400       C1157   1.470       .  S
C401        H406   1.085       .  S
C401        C402   1.376       .  D
C402       C1414   1.502       .  S
C407        C408   1.529       .  S
C407        C413   1.535       .  S
C407        C411   1.531       .  S
C407       C1141   1.516       .  S
C408        H415   1.087       .  S
C408        C409   1.367       .  D
C409        C410   1.560       .  S
C409       C1442   1.498       .  S
C410        C414   1.563       .  S
C410        C412   1.529       .  S
C410        H416   1.111       .  S
C411        H417   1.086       .  S
C411        C412   1.365       .  D
C412       C1145   1.465       .  S
C413        H418   1.084       .  S
C413        C414   1.371       .  D
C414       C1154   1.518       .  S
In419       O421   2.215       .  S
In419       O422   2.250       .  S
In419       O430   2.260       .  S
In419       O424   2.211   1_565  S
In419       O426   2.240       .  S
In419       O427   2.223   1_565  S
In419       O428   2.251   1_565  S
In419       O431   2.240   1_565  S
C420        O426   1.258   1_545  A
C420        O428   1.257       .  A
C420       C1137   1.468       .  S
O421        C429   1.259       .  A
O422        C429   1.262       .  A
C423        O430   1.259       .  A
C423        O424   1.262   1_565  A
C423       C1186   1.472       .  S
C425        O427   1.260       .  A
C425        O431   1.260       .  A
C425       C1178   1.464       .  S
C429       C1158   1.467       .  S
In432       O434   2.220   1_565  S
In432       O435   2.248   1_565  S
In432       O443   2.250   1_565  S
In432       O437   2.235       .  S
In432       O439   2.244   1_565  S
In432       O440   2.211       .  S
In432       O441   2.238       .  S
In432       O444   2.238       .  S
C433        O439   1.261   1_565  A
C433        O441   1.258       .  A
C433       C1138   1.467       .  S
O434        C442   1.261       .  A
O435        C442   1.258       .  A
C436        O443   1.258   1_565  A
C436        O437   1.258       .  A
C436       C1182   1.473       .  S
C438        O440   1.259       .  A
C438        O444   1.261       .  A
C438       C1146   1.458       .  S
C442       C1165   1.466       .  S
C445        C446   1.538       .  S
C445        C451   1.539       .  S
C445        C449   1.540       .  S
C445       C1194   1.533       .  S
C446        H453   1.085       .  S
C446        C447   1.372       .  D
C447        C448   1.541       .  S
C447       C1126   1.492       .  S
C448        C452   1.547       .  S
C448        C450   1.533       .  S
C448        H454   1.109       .  S
C449        H455   1.083       .  S
C449        C450   1.363       .  D
C450       C1133   1.467       .  S
C451        H456   1.086       .  S
C451        C452   1.371       .  D
C452       C1129   1.504       .  S
C457        C458   1.541       .  S
C457        C463   1.542       .  S
C457        C461   1.533       .  S
C457       C1150   1.530       .  S
C458        H465   1.084       .  S
C458        C459   1.373       .  D
C459        C460   1.553       .  S
C459       C1130   1.511       .  S
C460        C464   1.547       .  S
C460        C462   1.541       .  S
C460        H466   1.111       .  S
C461        H467   1.087       .  S
C461        C462   1.362       .  D
C462       C1122   1.477       .  S
C463        H468   1.085       .  S
C463        C464   1.376       .  D
C464       C1117   1.506       .  S
C469        C470   1.535       .  S
C469        C475   1.529       .  S
C469        C473   1.530       .  S
C469       C1221   1.524       .  S
C470        H477   1.086       .  S
C470        C471   1.371       .  D
C471        C472   1.558       .  S
C471       C1110   1.507       .  S
C472        C476   1.556       .  S
C472        C474   1.536       .  S
C472        H478   1.110       .  S
C473        H479   1.085       .  S
C473        C474   1.371       .  D
C474       C1113   1.477       .  S
C475        H480   1.087       .  S
C475        C476   1.366       .  D
C476       C1105   1.491       .  S
C481        C482   1.533       .  S
C481        C487   1.537       .  S
C481        C485   1.538       .  S
C481       C1170   1.529       .  S
C482        H489   1.087       .  S
C482        C483   1.370       .  D
C483        C484   1.555       .  S
C483       C1097   1.499       .  S
C484        C488   1.559       .  S
C484        C486   1.532       .  S
C484        H490   1.111       .  S
C485        H491   1.086       .  S
C485        C486   1.369       .  D
C486       C1101   1.476       .  S
C487        H492   1.085       .  S
C487        C488   1.373       .  D
C488       C1109   1.518       .  S
In493       O495   2.242       .  S
In493       O496   2.251       .  S
In493       O504   2.257       .  S
In493       O498   2.228       .  S
In493       O500   2.234       .  S
In493       O501   2.229       .  S
In493       O502   2.242       .  S
In493       O505   2.246       .  S
C494        O500   1.259       .  A
C494        O502   1.256       .  A
C494       C1089   1.464       .  S
O495        C503   1.260       .  A
O496        C503   1.261       .  A
C497        O504   1.259       .  A
C497        O498   1.258       .  A
C497       C1093   1.474       .  S
C499        O501   1.260       .  A
C499        O505   1.262       .  A
C499       C1102   1.469       .  S
C503       C1121   1.473       .  S
In506       O508   2.210       .  S
In506       O509   2.237       .  S
In506       O517   2.244       .  S
In506       O511   2.230       .  S
In506       O513   2.249       .  S
In506       O514   2.262       .  S
In506       O515   2.242       .  S
In506       O518   2.200       .  S
C507        O513   1.255       .  A
C507        O515   1.255       .  A
C507       C1090   1.463   1_554  S
O508        C516   1.260       .  A
O509        C516   1.266       .  A
C510        O517   1.260       .  A
C510        O511   1.263       .  A
C510       C1085   1.481       .  S
C512        O514   1.263       .  A
C512        O518   1.257       .  A
C512       C1134   1.466       .  S
C516       C1114   1.460       .  S
C519        C520   1.541       .  S
C519        C525   1.540       .  S
C519        C523   1.532       .  S
C519       C1201   1.520       .  S
C520        H527   1.083       .  S
C520        C521   1.374       .  D
C521        C522   1.554       .  S
C521       C1077   1.514   1_554  S
C522        C526   1.544       .  S
C522        C524   1.535       .  S
C522        H528   1.111       .  S
C523        H529   1.087       .  S
C523        C524   1.356       .  D
C524       C1081   1.465       .  S
C525        H530   1.085       .  S
C525        C526   1.374       .  D
C526       C1074   1.497       .  S
C531        C532   1.538       .  S
C531        C537   1.539       .  S
C531        C535   1.539       .  S
C531       C1142   1.531       .  S
C532        H539   1.086       .  S
C532        C533   1.372       .  D
C533        C534   1.541       .  S
C533       C1065   1.491       .  S
C534        C538   1.550       .  S
C534        C536   1.527       .  S
C534        H540   1.109       .  S
C535        H541   1.082       .  S
C535        C536   1.356       .  D
C536       C1069   1.453       .  S
C537        H542   1.086       .  S
C537        C538   1.374       .  D
C538       C1078   1.506       .  S
C543        C544   1.531       .  S
C543        C549   1.535       .  S
C543        C547   1.526       .  S
C543       C1213   1.523       .  S
C544        H551   1.087       .  S
C544        C545   1.367       .  D
C545        C546   1.560       .  S
C545       C1053   1.504       .  S
C546        C550   1.571       .  S
C546        C548   1.540       .  S
C546        H552   1.109       .  S
C547        H553   1.087       .  S
C547        C548   1.357       .  D
C548       C1062   1.469       .  S
C549        H554   1.084       .  S
C549        C550   1.379       .  D
C550       C1057   1.525   1_554  S
C555        C556   1.536       .  S
C555        C561   1.528       .  S
C555        C559   1.530       .  S
C555       C1162   1.531       .  S
C556        H563   1.087       .  S
C556        C557   1.375       .  D
C557        C558   1.563       .  S
C557       C1058   1.514       .  S
C558        C562   1.559       .  S
C558        C560   1.546       .  S
C558        H564   1.109       .  S
C559        H565   1.083       .  S
C559        C560   1.361       .  D
C560       C1049   1.473       .  S
C561        H566   1.087       .  S
C561        C562   1.365       .  D
C562       C1045   1.494       .  S
In567       O569   2.215       .  S
In567       O570   2.246       .  S
In567       O578   2.238       .  S
In567       O572   2.257       .  S
In567       O574   2.237       .  S
In567       O575   2.247       .  S
In567       O576   2.242       .  S
In567       O579   2.189       .  S
C568        O574   1.256       .  A
C568        O576   1.260       .  A
C568       C1041   1.463       .  S
O569        C577   1.265       .  A
O570        C577   1.261       .  A
C571        O578   1.257       .  A
C571        O572   1.255       .  A
C571       C1094   1.480       .  S
C573        O575   1.261       .  A
C573        O579   1.257       .  A
C573       C1070   1.458       .  S
C577       C1050   1.470       .  S
In580       O582   2.212       .  S
In580       O583   2.246       .  S
In580       O591   2.267       .  S
In580       O585   2.223       .  S
In580       O587   2.235       .  S
In580       O588   2.254       .  S
In580       O589   2.245       .  S
In580       O592   2.204       .  S
C581        O587   1.258       .  A
C581        O589   1.255       .  A
C581       C1042   1.461       .  S
O582        C590   1.260       .  A
O583        C590   1.262       .  A
C584        O591   1.259       .  A
C584        O585   1.253       .  A
C584       C1086   1.476       .  S
C586        O588   1.260       .  A
C586        O592   1.262       .  A
C586       C1061   1.466       .  S
C590       C1082   1.465       .  S
C593        C594   1.534       .  S
C593        C599   1.536       .  S
C593        C597   1.549       .  S
C593       C1029   1.538       .  S
C594        H601   1.087       .  S
C594        C595   1.365       .  D
C595        C596   1.551       .  S
C595       C1033   1.507       .  S
C596        C600   1.550       .  S
C596        C598   1.529       .  S
C596        H602   1.110       .  S
C597        H603   1.083       .  S
C597        C598   1.372       .  D
C598       C1037   1.472       .  S
C599        H604   1.086       .  S
C599        C600   1.375       .  D
C600       C1106   1.504       .  S
C605        C606   1.532       .  S
C605        C611   1.543       .  S
C605        C609   1.530       .  S
C605       C1354   1.522       .  S
C606        H613   1.086       .  S
C606        C607   1.366       .  D
C607        C608   1.548       .  S
C607       C1125   1.487       .  S
C608        C612   1.552       .  S
C608        C610   1.532       .  S
C608        H614   1.111       .  S
C609        H615   1.085       .  S
C609        C610   1.366       .  D
C610       C1026   1.475       .  S
C611        H616   1.085       .  S
C611        C612   1.377       .  D
C612       C1034   1.512       .  S
C617        C618   1.544       .  S
C617        C623   1.537       .  S
C617        C621   1.535       .  S
C617       C1382   1.541       .  S
C618        H625   1.084       .  S
C618        C619   1.380       .  D
C619        C620   1.564       .  S
C619       C1018   1.522       .  S
C620        C624   1.552       .  S
C620        C622   1.536       .  S
C620        H626   1.109       .  S
C621        H627   1.082       .  S
C621        C622   1.358       .  D
C622       C1021   1.469       .  S
C623        H628   1.087       .  S
C623        C624   1.369       .  D
C624       C1118   1.504       .  S
C629        C630   1.539       .  S
C629        C635   1.540       .  S
C629        C633   1.544       .  S
C629       C1009   1.545       .  S
C630        H637   1.086       .  S
C630        C631   1.373       .  D
C631        C632   1.550       .  S
C631       C1098   1.505       .  S
C632        C636   1.556       .  S
C632        C634   1.536       .  S
C632        H638   1.109       .  S
C633        H639   1.082       .  S
C633        C634   1.368       .  D
C634       C1013   1.476       .  S
C635        H640   1.086       .  S
C635        C636   1.373       .  D
C636       C1017   1.517       .  S
In641       O643   2.231   1_556  S
In641       O644   2.243   1_556  S
In641       O652   2.245       .  S
In641       O646   2.229   1_556  S
In641       O648   2.254   1_556  S
In641       O649   2.261       .  S
In641       O650   2.232       .  S
In641       O653   2.225       .  S
C642        O648   1.257       .  A
C642        O650   1.258   1_554  A
C642       C1005   1.467       .  S
O643        C651   1.261       .  A
O644        C651   1.260       .  A
C645        O652   1.258       .  A
C645        O646   1.260   1_556  A
C645       C1001   1.477   1_455  S
C647        O649   1.263       .  A
C647        O653   1.258       .  A
C647       C1014   1.471       .  S
C651       C1038   1.469       .  S
In654       O656   2.210   1_554  S
In654       O657   2.270   1_554  S
In654       O665   2.252   1_554  S
In654       O659   2.230       .  S
In654       O661   2.246       .  S
In654       O662   2.231       .  S
In654       O663   2.242   1_554  S
In654       O666   2.225       .  S
C655        O661   1.257       .  A
C655        O663   1.257   1_554  A
C655       C1006   1.464   1_554  S
O656        C664   1.258       .  A
O657        C664   1.262       .  A
C658        O665   1.260   1_554  A
C658        O659   1.260       .  A
C658        C997   1.480   1_554  S
C660        O662   1.263       .  A
C660        O666   1.260       .  A
C660       C1025   1.461       .  S
C664       C1022   1.473       .  S
C667        C668   1.542       .  S
C667        C673   1.534       .  S
C667        C671   1.543       .  S
C667        C985   1.537       .  S
C668        H675   1.085       .  S
C668        C669   1.377       .  D
C669        C670   1.550       .  S
C669       C1054   1.507       .  S
C670        C674   1.552       .  S
C670        C672   1.538       .  S
C670        H676   1.108       .  S
C671        H677   1.086       .  S
C671        C672   1.368       .  D
C672        C993   1.478       .  S
C673        H678   1.087       .  S
C673        C674   1.365       .  D
C674        C989   1.507       .  S
C679        C680   1.542       .  S
C679        C685   1.536       .  S
C679        C683   1.531       .  S
C679       C1342   1.527       .  S
C680        H687   1.085       .  S
C680        C681   1.374       .  D
C681        C682   1.556       .  S
C681        C990   1.514       .  S
C682        C686   1.552       .  S
C682        C684   1.539       .  S
C682        H688   1.108       .  S
C683        H689   1.087       .  S
C683        C684   1.362       .  D
C684        C982   1.472       .  S
C685        H690   1.087       .  S
C685        C686   1.372       .  D
C686       C1073   1.498       .  S
C691        C692   1.536       .  S
C691        C697   1.534       .  S
C691        C695   1.538       .  S
C691        C969   1.528       .  S
C692        H699   1.087       .  S
C692        C693   1.369       .  D
C693        C694   1.553       .  S
C693        C973   1.504       .  S
C694        C698   1.549       .  S
C694        C696   1.537       .  S
C694        H700   1.109       .  S
C695        H701   1.086       .  S
C695        C696   1.364       .  D
C696        C977   1.469       .  S
C697        H702   1.085       .  S
C697        C698   1.374       .  D
C698       C1046   1.505       .  S
C703        C704   1.532       .  S
C703        C709   1.540       .  S
C703        C707   1.539       .  S
C703       C1370   1.521       .  S
C704        H711   1.086       .  S
C704        C705   1.365       .  D
C705        C706   1.547       .  S
C705       C1066   1.485       .  S
C706        C710   1.551       .  S
C706        C708   1.530       .  S
C706        H712   1.111       .  S
C707        H713   1.086       .  S
C707        C708   1.367       .  D
C708        C965   1.476       .  S
C709        H714   1.086       .  S
C709        C710   1.374       .  D
C710        C974   1.506       .  S
In715       O717   2.220       .  S
In715       O718   2.241       .  S
In715       O726   2.256       .  S
In715       O720   2.228       .  S
In715       O722   2.223       .  S
In715       O723   2.237   1_556  S
In715       O724   2.255   1_556  S
In715       O727   2.226   1_556  S
C716        O722   1.257       .  A
C716        O724   1.256   1_556  A
C716        C961   1.461   1_556  S
O717        C725   1.261       .  A
O718        C725   1.262       .  A
C719        O726   1.256       .  A
C719        O720   1.256       .  A
C719       C1002   1.474       .  S
C721        O723   1.262       .  A
C721        O727   1.262       .  A
C721        C994   1.465       .  S
C725        C978   1.465       .  S
In728       O730   2.210   1_556  S
In728       O731   2.266   1_556  S
In728       O739   2.255   1_556  S
In728       O733   2.218       .  S
In728       O735   2.235       .  S
In728       O736   2.244       .  S
In728       O737   2.239   1_556  S
In728       O740   2.234       .  S
C729        O735   1.256       .  A
C729        O737   1.258   1_556  A
C729        C962   1.459       .  S
O730        C738   1.258       .  A
O731        C738   1.265       .  A
C732        O739   1.260   1_556  A
C732        O733   1.257       .  A
C732        C998   1.475   1_556  S
C734        O736   1.261       .  A
C734        O740   1.261       .  A
C734        C966   1.470       .  S
C738        C981   1.471       .  S
C741        C742   1.539       .  S
C741        C747   1.535       .  S
C741        C745   1.534       .  S
C741       C1246   1.527       .  S
C742        H749   1.084       .  S
C742        C743   1.373       .  D
C743        C744   1.562       .  S
C743        C954   1.522       .  S
C744        C748   1.556       .  S
C744        C746   1.543       .  S
C744        H750   1.108       .  S
C745        H751   1.086       .  S
C745        C746   1.364       .  D
C746        C957   1.478       .  S
C747        H752   1.087       .  S
C747        C748   1.370       .  D
C748        C950   1.504       .  S
C753        C754   1.536       .  S
C753        C759   1.539       .  S
C753        C757   1.536       .  S
C753       C1422   1.537       .  S
C754        H761   1.085       .  S
C754        C755   1.373       .  D
C755        C756   1.555       .  S
C755        C941   1.509       .  S
C756        C760   1.558       .  S
C756        C758   1.535       .  S
C756        H762   1.110       .  S
C757        H763   1.083       .  S
C757        C758   1.363       .  D
C758        C946   1.467       .  S
C759        H764   1.086       .  S
C759        C760   1.374       .  D
C760        C953   1.514       .  S
C765        C766   1.542       .  S
C765        C771   1.530       .  S
C765        C769   1.542       .  S
C765       C1450   1.544       .  S
C766        H773   1.086       .  S
C766        C767   1.377       .  D
C767        C768   1.553       .  S
C767        C934   1.511       .  S
C768        C772   1.551       .  S
C768        C770   1.531       .  S
C768        H774   1.110       .  S
C769        H775   1.077       .  S
C769        C770   1.372       .  D
C770        C937   1.483       .  S
C771        H776   1.087       .  S
C771        C772   1.366       .  D
C772        C929   1.492       .  S
C777        C778   1.534       .  S
C777        C783   1.532       .  S
C777        C781   1.528       .  S
C777       C1274   1.517       .  S
C778        H785   1.087       .  S
C778        C779   1.371       .  D
C779        C780   1.554       .  S
C779        C921   1.496       .  S
C780        C784   1.568       .  S
C780        C782   1.535       .  S
C780        H786   1.111       .  S
C781        H787   1.087       .  S
C781        C782   1.363       .  D
C782        C925   1.475       .  S
C783        H788   1.084       .  S
C783        C784   1.369       .  D
C784        C933   1.520       .  S
In789       O791   2.226   1_655  S
In789       O792   2.250   1_655  S
In789       O800   2.254   1_655  S
In789       O794   2.232       .  S
In789       O796   2.243       .  S
In789       O797   2.214       .  S
In789       O798   2.242       .  S
In789       O801   2.245       .  S
C790        O796   1.260       .  A
C790        O798   1.255       .  A
C790        C917   1.464       .  S
O791        C799   1.261       .  A
O792        C799   1.263       .  A
C793        O800   1.259   1_655  A
C793        O794   1.256       .  A
C793       C1290   1.464       .  S
C795        O797   1.259       .  A
C795        O801   1.265       .  A
C795        C926   1.464       .  S
C799        C958   1.471       .  S
In802       O804   2.214       .  S
In802       O805   2.241       .  S
In802       O813   2.249       .  S
In802       O807   2.227       .  S
In802       O809   2.254       .  S
In802       O810   2.258       .  S
In802       O811   2.229       .  S
In802       O814   2.208   1_655  S
C803        O809   1.258       .  A
C803        O811   1.257       .  A
C803        C918   1.464       .  S
O804        C812   1.261       .  A
O805        C812   1.266       .  A
C806        O813   1.259       .  A
C806        O807   1.261       .  A
C806       C1286   1.477       .  S
C808        O810   1.263   1_455  A
C808        O814   1.259       .  A
C808        C945   1.469       .  S
C812        C938   1.464       .  S
C815        C816   1.537       .  S
C815        C821   1.541       .  S
C815        C819   1.535       .  S
C815       C1010   1.535       .  S
C816        H823   1.086       .  S
C816        C817   1.373       .  D
C817        C818   1.551       .  S
C817        C942   1.499       .  S
C818        C822   1.553       .  S
C818        C820   1.530       .  S
C818        H824   1.111       .  S
C819        H825   1.086       .  S
C819        C820   1.368       .  D
C820        C913   1.471       .  S
C821        H826   1.085       .  S
C821        C822   1.373       .  D
C822        C909   1.510   1_455  S
C827        C828   1.536       .  S
C827        C833   1.536       .  S
C827        C831   1.536       .  S
C827        C970   1.527       .  S
C828        H835   1.087       .  S
C828        C829   1.370       .  D
C829        C830   1.553       .  S
C829        C910   1.505       .  S
C830        C834   1.551       .  S
C830        C832   1.537       .  S
C830        H836   1.110       .  S
C831        H837   1.086       .  S
C831        C832   1.361       .  D
C832        C905   1.470       .  S
C833        H838   1.085       .  S
C833        C834   1.374       .  D
C834        C930   1.501       .  S
C839        C840   1.541       .  S
C839        C845   1.546       .  S
C839        C843   1.535       .  S
C839       C1030   1.533       .  S
C840        H847   1.084       .  S
C840        C841   1.372       .  D
C841        C842   1.550       .  S
C841        C897   1.514       .  S
C842        C846   1.542       .  S
C842        C844   1.540       .  S
C842        H848   1.110       .  S
C843        H849   1.087       .  S
C843        C844   1.362       .  D
C844        C901   1.477       .  S
C845        H850   1.085       .  S
C845        C846   1.378       .  D
C846        C949   1.501       .  S
C851        C852   1.540       .  S
C851        C857   1.536       .  S
C851        C855   1.542       .  S
C851        C986   1.535       .  S
C852        H859   1.085       .  S
C852        C853   1.375       .  D
C853        C854   1.547       .  S
C853        C922   1.500       .  S
C854        C858   1.550       .  S
C854        C856   1.539       .  S
C854        H860   1.109       .  S
C855        H861   1.086       .  S
C855        C856   1.368       .  D
C856        C893   1.477       .  S
C857        H862   1.086       .  S
C857        C858   1.366       .  D
C858        C898   1.507       .  S
In863       O865   2.227       .  S
In863       O866   2.252       .  S
In863       O874   2.248       .  S
In863       O868   2.210       .  S
In863       O870   2.242       .  S
In863       O871   2.225       .  S
In863       O872   2.242       .  S
In863       O875   2.236       .  S
C864        O870   1.255       .  A
C864        O872   1.257       .  A
C864        C890   1.462       .  S
O865        C873   1.258       .  A
O866        C873   1.261       .  A
C867        O874   1.260       .  A
C867        O868   1.259       .  A
C867       C1329   1.471       .  S
C869        O871   1.261       .  A
C869        O875   1.261       .  A
C869        C914   1.465       .  S
C873        C902   1.470       .  S
In876       O878   2.225       .  S
In876       O879   2.240       .  S
In876       O887   2.261       .  S
In876       O881   2.240       .  S
In876       O883   2.258       .  S
In876       O884   2.233       .  S
In876       O885   2.230       .  S
In876       O888   2.231       .  S
C877        O883   1.258       .  A
C877        O885   1.257       .  A
C877        C889   1.465       .  S
O878        C886   1.262       .  A
O879        C886   1.262       .  A
C880        O887   1.255       .  A
C880        O881   1.256       .  A
C880       C1338   1.479       .  S
C882        O884   1.261       .  A
C882        O888   1.262       .  A
C882        C894   1.464       .  S
C886        C906   1.466       .  S
C889        H891   1.086   1_655  S
C889        C890   1.339   1_655  D
C890        H892   1.087       .  S
C893        H895   1.087       .  S
C893        C894   1.343       .  D
C894        H896   1.085       .  S
C897        H899   1.084   1_455  S
C897        C898   1.357   1_455  D
C898        H900   1.083       .  S
C901        H903   1.087       .  S
C901        C902   1.344       .  D
C902        H904   1.086       .  S
C905        H907   1.087       .  S
C905        C906   1.340       .  D
C906        H908   1.087       .  S
C909        H911   1.085       .  S
C909        C910   1.356       .  D
C910        H912   1.086       .  S
C913        H915   1.086       .  S
C913        C914   1.340       .  D
C914        H916   1.086       .  S
C917        H919   1.087       .  S
C917        C918   1.337       .  D
C918        H920   1.086   1_655  S
C921        H923   1.086       .  S
C921        C922   1.354       .  D
C922        H924   1.085       .  S
C925        H927   1.085       .  S
C925        C926   1.348       .  D
C926        H928   1.086       .  S
C929        H931   1.084       .  S
C929        C930   1.352       .  D
C930        H932   1.085       .  S
C933        H935   1.085       .  S
C933        C934   1.365       .  D
C934        H936   1.084       .  S
C937        H939   1.086       .  S
C937        C938   1.341       .  D
C938        H940   1.082       .  S
C941        H943   1.086       .  S
C941        C942   1.359       .  D
C942        H944   1.085       .  S
C945        H947   1.087       .  S
C945        C946   1.341       .  D
C946        H948   1.088       .  S
C949        H951   1.082       .  S
C949        C950   1.351       .  D
C950        H952   1.086       .  S
C953        H955   1.084       .  S
C953        C954   1.363       .  D
C954        H956   1.085       .  S
C957        H959   1.086       .  S
C957        C958   1.343       .  D
C958        H960   1.084       .  S
C961        H963   1.087       .  S
C961        C962   1.338   1_554  D
C962        H964   1.087       .  S
C965        H967   1.086       .  S
C965        C966   1.342       .  D
C966        H968   1.086       .  S
C969        H971   1.087       .  S
C969        C970   1.355       .  D
C970        H972   1.086       .  S
C973        H975   1.087       .  S
C973        C974   1.353       .  D
C974        H976   1.085       .  S
C977        H979   1.087       .  S
C977        C978   1.341       .  D
C978        H980   1.086       .  S
C981        H983   1.084       .  S
C981        C982   1.343       .  D
C982        H984   1.088       .  S
C985        H987   1.085       .  S
C985        C986   1.354       .  D
C986        H988   1.085       .  S
C989        H991   1.086       .  S
C989        C990   1.357       .  D
C990        H992   1.085       .  S
C993        H995   1.087       .  S
C993        C994   1.344       .  D
C994        H996   1.084       .  S
C997        H999   1.086   1_556  S
C997        C998   1.349   1_456  D
C998       H1000   1.086       .  S
C1001      H1003   1.087   1_655  S
C1001      C1002   1.347       .  D
C1002      H1004   1.086       .  S
C1005      H1007   1.085       .  S
C1005      C1006   1.339   1_554  D
C1006      H1008   1.086       .  S
C1009      H1011   1.086       .  S
C1009      C1010   1.361       .  D
C1010      H1012   1.079       .  S
C1013      H1015   1.087       .  S
C1013      C1014   1.345       .  D
C1014      H1016   1.086       .  S
C1017      H1019   1.085       .  S
C1017      C1018   1.362       .  D
C1018      H1020   1.085       .  S
C1021      H1023   1.087       .  S
C1021      C1022   1.342       .  D
C1022      H1024   1.085       .  S
C1025      H1027   1.085       .  S
C1025      C1026   1.341       .  D
C1026      H1028   1.086       .  S
C1029      H1031   1.087       .  S
C1029      C1030   1.355       .  D
C1030      H1032   1.082       .  S
C1033      H1035   1.085       .  S
C1033      C1034   1.354       .  D
C1034      H1036   1.085       .  S
C1037      H1039   1.087       .  S
C1037      C1038   1.340       .  D
C1038      H1040   1.087       .  S
C1041      H1043   1.087       .  S
C1041      C1042   1.338   1_556  D
C1042      H1044   1.087   1_554  S
C1045      H1047   1.086       .  S
C1045      C1046   1.352       .  D
C1046      H1048   1.085       .  S
C1049      H1051   1.088       .  S
C1049      C1050   1.336       .  D
C1050      H1052   1.084       .  S
C1053      H1055   1.085       .  S
C1053      C1054   1.354       .  D
C1054      H1056   1.080       .  S
C1057      H1059   1.085       .  S
C1057      C1058   1.362       .  D
C1058      H1060   1.084       .  S
C1061      H1063   1.080       .  S
C1061      C1062   1.338       .  D
C1062      H1064   1.087       .  S
C1065      H1067   1.085       .  S
C1065      C1066   1.349       .  D
C1066      H1068   1.086       .  S
C1069      H1071   1.086       .  S
C1069      C1070   1.338       .  D
C1070      H1072   1.086       .  S
C1073      H1075   1.086       .  S
C1073      C1074   1.351       .  D
C1074      H1076   1.083       .  S
C1077      H1079   1.084       .  S
C1077      C1078   1.359       .  D
C1078      H1080   1.083       .  S
C1081      H1083   1.087       .  S
C1081      C1082   1.340       .  D
C1082      H1084   1.088       .  S
C1085      H1087   1.087       .  S
C1085      C1086   1.350       .  D
C1086      H1088   1.086       .  S
C1089      H1091   1.087       .  S
C1089      C1090   1.338       .  D
C1090      H1092   1.087       .  S
C1093      H1095   1.085       .  S
C1093      C1094   1.348       .  D
C1094      H1096   1.088       .  S
C1097      H1099   1.086       .  S
C1097      C1098   1.356       .  D
C1098      H1100   1.085       .  S
C1101      H1103   1.085       .  S
C1101      C1102   1.343       .  D
C1102      H1104   1.085       .  S
C1105      H1107   1.086       .  S
C1105      C1106   1.353       .  D
C1106      H1108   1.086       .  S
C1109      H1111   1.084       .  S
C1109      C1110   1.358   1_556  D
C1110      H1112   1.084   1_554  S
C1113      H1115   1.086       .  S
C1113      C1114   1.340       .  D
C1114      H1116   1.084       .  S
C1117      H1119   1.083       .  S
C1117      C1118   1.354       .  D
C1118      H1120   1.085       .  S
C1121      H1123   1.086       .  S
C1121      C1122   1.342       .  D
C1122      H1124   1.087       .  S
C1125      H1127   1.086       .  S
C1125      C1126   1.348       .  D
C1126      H1128   1.085       .  S
C1129      H1131   1.082       .  S
C1129      C1130   1.358   1_554  D
C1130      H1132   1.083   1_556  S
C1133      H1135   1.087       .  S
C1133      C1134   1.343       .  D
C1134      H1136   1.086       .  S
C1137      H1139   1.087       .  S
C1137      C1138   1.341   1_545  D
C1138      H1140   1.087       .  S
C1141      H1143   1.079       .  S
C1141      C1142   1.355       .  D
C1142      H1144   1.087       .  S
C1145      H1147   1.086       .  S
C1145      C1146   1.339       .  D
C1146      H1148   1.087       .  S
C1149      H1151   1.086       .  S
C1149      C1150   1.360       .  D
C1150      H1152   1.079       .  S
C1153      H1155   1.084       .  S
C1153      C1154   1.361       .  D
C1154      H1156   1.084       .  S
C1157      H1159   1.086       .  S
C1157      C1158   1.342       .  D
C1158      H1160   1.085       .  S
C1161      H1163   1.082       .  S
C1161      C1162   1.360       .  D
C1162      H1164   1.088       .  S
C1165      H1167   1.085       .  S
C1165      C1166   1.336       .  D
C1166      H1168   1.088       .  S
C1169      H1171   1.087       .  S
C1169      C1170   1.356       .  D
C1170      H1172   1.082       .  S
C1173      H1175   1.083       .  S
C1173      C1174   1.357       .  D
C1174      H1176   1.084       .  S
C1177      H1179   1.086       .  S
C1177      C1178   1.342       .  D
C1178      H1180   1.086       .  S
C1181      H1183   1.085       .  S
C1181      C1182   1.346   1_554  D
C1182      H1184   1.087       .  S
C1185      H1187   1.088       .  S
C1185      C1186   1.336   1_544  D
C1186      H1188   1.086       .  S
C1189      H1191   1.086       .  S
C1189      C1190   1.341   1_565  D
C1190      H1192   1.086       .  S
C1193      H1195   1.080       .  S
C1193      C1194   1.358       .  D
C1194      H1196   1.087       .  S
C1197      H1199   1.086       .  S
C1197      C1198   1.341       .  D
C1198      H1200   1.084       .  S
C1201      H1203   1.080       .  S
C1201      C1202   1.356       .  D
C1202      H1204   1.087       .  S
C1205      H1207   1.085       .  S
C1205      C1206   1.354       .  D
C1206      H1208   1.085       .  S
C1209      H1211   1.088       .  S
C1209      C1210   1.340       .  D
C1210      H1212   1.087       .  S
C1213      H1215   1.081       .  S
C1213      C1214   1.358       .  D
C1214      H1216   1.087       .  S
C1217      H1219   1.087       .  S
C1217      C1218   1.340       .  D
C1218      H1220   1.086       .  S
C1221      H1223   1.079       .  S
C1221      C1222   1.358       .  D
C1222      H1224   1.087       .  S
C1225      H1227   1.084       .  S
C1225      C1226   1.356       .  D
C1226      H1228   1.083       .  S
C1229      H1231   1.087       .  S
C1229      C1230   1.339       .  D
C1230      H1232   1.088       .  S
C1233      H1235   1.088       .  S
C1233      C1234   1.339       .  D
C1234      H1236   1.087       .  S
C1237      H1239   1.084       .  S
C1237      C1238   1.351       .  D
C1238      H1240   1.081       .  S
C1241      H1243   1.088       .  S
C1241      C1242   1.342       .  D
C1242      H1244   1.088       .  S
C1245      H1247   1.086       .  S
C1245      C1246   1.357       .  D
C1246      H1248   1.079       .  S
C1249      H1251   1.085       .  S
C1249      C1250   1.353       .  D
C1250      H1252   1.086       .  S
C1253      H1255   1.084   1_545  S
C1253      C1254   1.356   1_545  D
C1254      H1256   1.084       .  S
C1257      H1259   1.084       .  S
C1257      C1258   1.341       .  D
C1258      H1260   1.087       .  S
C1261      H1263   1.085       .  S
C1261      C1262   1.354       .  D
C1262      H1264   1.086       .  S
C1265      H1267   1.086       .  S
C1265      C1266   1.345       .  D
C1266      H1268   1.087       .  S
C1269      H1271   1.086       .  S
C1269      C1270   1.351       .  D
C1270      H1272   1.087       .  S
C1273      H1275   1.087       .  S
C1273      C1274   1.357       .  D
C1274      H1276   1.078       .  S
C1277      H1279   1.084       .  S
C1277      C1278   1.358   1_545  D
C1278      H1280   1.083   1_565  S
C1281      H1283   1.083       .  S
C1281      C1282   1.340       .  D
C1282      H1284   1.085       .  S
C1285      H1287   1.086       .  S
C1285      C1286   1.346   1_565  D
C1286      H1288   1.085       .  S
C1289      H1291   1.088       .  S
C1289      C1290   1.340   1_455  D
C1290      H1292   1.087   1_545  S
C1293      H1295   1.087       .  S
C1293      C1294   1.340       .  D
C1294      H1296   1.086   1_455  S
C1297      H1299   1.087       .  S
C1297      C1298   1.341       .  D
C1298      H1300   1.086       .  S
C1301      H1303   1.081       .  S
C1301      C1302   1.357       .  D
C1302      H1304   1.088       .  S
C1305      H1307   1.085       .  S
C1305      C1306   1.356       .  D
C1306      H1308   1.086       .  S
C1309      H1311   1.087       .  S
C1309      C1310   1.340       .  D
C1310      H1312   1.086       .  S
C1313      H1315   1.088       .  S
C1313      C1314   1.341       .  D
C1314      H1316   1.086       .  S
C1317      H1319   1.087       .  S
C1317      C1318   1.355       .  D
C1318      H1320   1.080       .  S
C1321      H1323   1.084       .  S
C1321      C1322   1.353       .  D
C1322      H1324   1.085       .  S
C1325      H1327   1.087       .  S
C1325      C1326   1.342       .  D
C1326      H1328   1.087       .  S
C1329      H1331   1.086       .  S
C1329      C1330   1.348       .  D
C1330      H1332   1.086       .  S
C1333      H1335   1.085       .  S
C1333      C1334   1.341   1_655  D
C1334      H1336   1.086   1_455  S
C1337      H1339   1.087       .  S
C1337      C1338   1.348       .  D
C1338      H1340   1.085       .  S
C1341      H1343   1.086       .  S
C1341      C1342   1.363       .  D
C1342      H1344   1.077       .  S
C1345      H1347   1.083       .  S
C1345      C1346   1.347       .  D
C1346      H1348   1.085       .  S
C1349      H1351   1.086       .  S
C1349      C1350   1.339       .  D
C1350      H1352   1.087       .  S
C1353      H1355   1.087       .  S
C1353      C1354   1.362       .  D
C1354      H1356   1.079       .  S
C1357      H1359   1.086       .  S
C1357      C1358   1.354       .  D
C1358      H1360   1.085       .  S
C1361      H1363   1.084   1_655  S
C1361      C1362   1.356   1_655  D
C1362      H1364   1.084       .  S
C1365      H1367   1.088       .  S
C1365      C1366   1.337       .  D
C1366      H1368   1.088       .  S
C1369      H1371   1.087       .  S
C1369      C1370   1.355       .  D
C1370      H1372   1.083       .  S
C1373      H1375   1.086       .  S
C1373      C1374   1.356       .  D
C1374      H1376   1.085       .  S
C1377      H1379   1.086       .  S
C1377      C1378   1.342       .  D
C1378      H1380   1.086       .  S
C1381      H1383   1.080       .  S
C1381      C1382   1.366       .  D
C1382      H1384   1.087       .  S
C1385      H1387   1.084       .  S
C1385      C1386   1.353       .  D
C1386      H1388   1.082       .  S
C1389      H1391   1.085       .  S
C1389      C1390   1.353   1_655  D
C1390      H1392   1.085   1_455  S
C1393      H1395   1.088       .  S
C1393      C1394   1.337       .  D
C1394      H1396   1.082       .  S
C1397      H1399   1.086       .  S
C1397      C1398   1.346       .  D
C1398      H1400   1.086       .  S
C1401      H1403   1.088       .  S
C1401      C1402   1.338   1_565  D
C1402      H1404   1.087   1_545  S
C1405      H1407   1.088       .  S
C1405      C1406   1.338       .  D
C1406      H1408   1.088       .  S
C1409      H1411   1.087       .  S
C1409      C1410   1.358       .  D
C1410      H1412   1.081       .  S
C1413      H1415   1.085       .  S
C1413      C1414   1.352       .  D
C1414      H1416   1.085       .  S
C1417      H1419   1.087       .  S
C1417      C1418   1.342       .  D
C1418      H1420   1.086       .  S
C1421      H1423   1.082       .  S
C1421      C1422   1.364       .  D
C1422      H1424   1.088       .  S
C1425      H1427   1.085       .  S
C1425      C1426   1.357       .  D
C1426      H1428   1.085       .  S
C1429      H1431   1.084       .  S
C1429      C1430   1.361       .  D
C1430      H1432   1.085       .  S
C1433      H1435   1.087       .  S
C1433      C1434   1.343       .  D
C1434      H1436   1.084       .  S
C1437      H1439   1.087       .  S
C1437      C1438   1.356       .  D
C1438      H1440   1.080       .  S
C1441      H1443   1.085       .  S
C1441      C1442   1.351       .  D
C1442      H1444   1.086       .  S
C1445      H1447   1.087       .  S
C1445      C1446   1.344       .  D
C1446      H1448   1.085       .  S
C1449      H1451   1.080       .  S
C1449      C1450   1.363       .  D
C1450      H1452   1.087       .  S
C1453      H1455   1.083       .  S
C1453      C1454   1.350       .  D
C1454      H1456   1.084       .  S
C1457      H1459   1.085   1_545  S
C1457      C1458   1.354   1_545  D
C1458      H1460   1.085       .  S
C1461      H1463   1.087       .  S
C1461      C1462   1.339       .  D
C1462      H1464   1.086       .  S
