geometry optimzed in LAMMPS
_audit_creation_date              2020-11-30 
_audit_creation_method            'lammps2cif' 
_symmetry_space_group_name_H-M    'P1' 
_symmetry_Int_Tables_number       1 
_symmetry_cell_setting            triclinic 
loop_ 
_symmetry_equiv_pos_as_xyz 
  x,y,z 
_cell_length_a                    31.51398997 
_cell_length_b                    32.62413168051538 
_cell_length_c                    30.264327771503215 
_cell_angle_alpha                 90.27457136831397 
_cell_angle_beta                  89.93258561513551 
_cell_angle_gamma                 90.21532809750137 
loop_ 
_atom_site_label 
_atom_site_type_symbol 
_atom_site_fract_x 
_atom_site_fract_y 
_atom_site_fract_z 
_atom_site_charge 
O1          O  0.47661102  0.39908463  0.47839038    -0.79400
O2          O  0.53743527  0.54488988  0.44737703    -0.79400
O3          O  0.45526570  0.54654479  0.44660005    -0.79400
O4          O  0.59508290  0.45509877  0.48926177    -0.79300
O5          O  0.48256001  0.60419476  0.47396951    -0.79500
O6          O  0.53782497  0.45172013  0.44985389    -0.79400
O7          O  0.59631679  0.53777827  0.48398637    -0.79400
O8          O  0.45650447  0.45744196  0.44759984    -0.79400
C9          C  0.45529088  0.41781368  0.44897405     1.10300
C10         C  0.57733654  0.54716547  0.44863951     1.10200
C11         C  0.45813771  0.58630623  0.44656163     1.10400
C12         C  0.57664254  0.44368178  0.45411651     1.10200
O13         O  0.54827327  0.41114086  0.53621720    -0.79400
O14         O  0.47658218  0.57539056  0.55805305    -0.79400
O15         O  0.41984202  0.46206293  0.53684148    -0.79400
O16         O  0.57184743  0.54464436  0.57547857    -0.79400
O17         O  0.55461761  0.59101607  0.52729835    -0.79400
O18         O  0.47597821  0.43384034  0.56161323    -0.79400
O19         O  0.56869150  0.46080174  0.58039572    -0.79300
O20         O  0.42126474  0.54296208  0.53525635    -0.79400
Co21       Co  0.50388156  0.44539247  0.50519286     1.51500
Co22       Co  0.50562244  0.55778591  0.50261931     1.51700
Co23       Co  0.44719414  0.50204286  0.49484950     1.51600
Co24       Co  0.57806674  0.49986207  0.53214702     1.51500
O25         O  0.51265637  0.50187811  0.52366922    -1.41300
C26         C  0.56754943  0.42310585  0.57102270     1.10300
C27         C  0.43725216  0.56945547  0.56037910     1.10300
C28         C  0.43715279  0.43941392  0.56499839     1.10300
C29         C  0.57514582  0.58097827  0.56168386     1.10300
O30         O  0.95148239  0.41904679  0.98303440    -0.79400
O31         O  0.02848371  0.58951982  0.98188728    -0.79400
O32         O  0.88884540  0.53223357  0.96124438    -0.79400
O33         O  0.04933936  0.45797753  0.93985508    -0.79300
O34         O  0.94911038  0.56566293  0.95277849    -0.79500
O35         O  0.03702115  0.41066816  0.98955244    -0.79400
O36         O  0.04275452  0.53980001  0.93732098    -0.79400
O37         O  0.94491195  0.47127491  0.93709166    -0.79400
C38         C  0.94107072  0.43330674  0.94540236     1.10300
C39         C  0.04549610  0.57728667  0.94636577     1.10200
C40         C  0.90929694  0.56097013  0.94283752     1.10400
C41         C  0.05168173  0.42117969  0.95187262     1.10200
O42         O  0.03427760  0.45288686  0.07471948    -0.79400
O43         O  0.95761337  0.60537516  0.03085749    -0.79400
O44         O  0.90127997  0.46866362  0.01956995    -0.79400
O45         O  0.07571296  0.54420083  0.02871991    -0.79400
O46         O  0.01661221  0.55364551  0.06669423    -0.79400
O47         O  0.94849662  0.45844677  0.07028908    -0.79400
O48         O  0.08636112  0.46160718  0.02766232    -0.79300
O49         O  0.92304824  0.54747831  0.04210850    -0.79400
Co50       Co  0.99280844  0.43900247  0.02890343     1.51500
Co51       Co  0.98301575  0.55575844  0.01191749     1.51700
Co52       Co  0.93828081  0.50961674  0.98748274     1.51600
Co53       Co  0.05975773  0.50103739  0.98357640     1.51500
O54         O  0.99861262  0.49624161  0.00354715    -1.41300
C55         C  0.07287570  0.44901971  0.06496240     1.10300
C56         C  0.92749108  0.58645151  0.04965636     1.10300
C57         C  0.91059913  0.45536510  0.05759994     1.10300
C58         C  0.05666242  0.55598719  0.06384853     1.10300
C59         C  0.75805740  0.24287211  0.75766123    -0.01700
O60         O  0.46186734  0.06362808  0.95752725    -0.79400
O61         O  0.48322657  0.89964947  0.03663107    -0.79400
O62         O  0.44165071  0.97266506  0.94175830    -0.79400
O63         O  0.43241695  0.02813129  0.05246021    -0.79300
O64         O  0.47995009  0.91639824  0.94942582    -0.79500
O65         O  0.47800950  0.07730935  0.04346278    -0.79400
O66         O  0.43473468  0.94558179  0.05219604    -0.79400
O67         O  0.47568589  0.03573706  0.89267249    -0.79400
C68         C  0.45641289  0.06272896  0.91512024     1.10300
C69         C  0.44565678  0.90861143  0.04844479     1.10200
C70         C  0.44531543  0.93407014  0.93818570     1.10400
C71         C  0.44132217  0.06561570  0.05517505     1.10200
O72         O  0.56044745  0.03861037  0.03971319    -0.79400
O73         O  0.56623641  0.95417873  0.95759085    -0.79400
O74         O  0.54944666  0.04205300  0.94040125    -0.79400
O75         O  0.51671486  0.94681096  0.09648899    -0.79400
O76         O  0.56430995  0.94118523  0.04374910    -0.79400
O77         O  0.53697877  0.09703685  0.98158030    -0.79400
O78         O  0.51625207  0.03075294  0.09525026    -0.79300
O79         O  0.52392039  0.96719683  0.90422320    -0.79400
Co80       Co  0.51284544  0.04675328  0.99849012     1.51500
Co81       Co  0.52305338  0.93126671  0.99699493     1.51700
Co82       Co  0.49298723  0.00713645  0.94432953     1.51600
Co83       Co  0.47563685  0.98800565  0.07006383     1.51500
O84         O  0.49905948  0.98756232  0.00722202    -1.41300
C85         C  0.55180020  0.04334972  0.08017712     1.10300
C86         C  0.55850903  0.95202178  0.91718664     1.10300
C87         C  0.55883840  0.07934752  0.95208049     1.10300
C88         C  0.55353902  0.93614136  0.08336056     1.10300
C89         C  0.24738223  0.75077102  0.75695032    -0.01700
O90         O  0.96994804  0.06905634  0.53685052    -0.79400
O91         O  0.05478082  0.91297176  0.50737288    -0.79400
O92         O  0.96450691  0.98133506  0.55435797    -0.79400
O93         O  0.06511498  0.04460441  0.55039288    -0.79300
O94         O  0.96950300  0.92435705  0.51511478    -0.79500
O95         O  0.04889447  0.09328307  0.50556544    -0.79400
O96         O  0.07050786  0.96366571  0.55212280    -0.79400
O97         O  0.90878741  0.03855896  0.52438571    -0.79400
C98         C  0.92987729  0.06507065  0.54566167     1.10300
C99         C  0.06999773  0.92580676  0.54400536     1.10200
C100        C  0.95948646  0.94289904  0.55082545     1.10400
C101        C  0.06593048  0.08200247  0.54123959     1.10200
O102        O  0.03595470  0.05635325  0.42190827    -0.79400
O103        O  0.96695235  0.95625996  0.42399858    -0.79400
O104        O  0.94354200  0.04969573  0.44397596    -0.79400
O105        O  0.10499455  0.96094689  0.46313200    -0.79400
O106        O  0.05142187  0.94883526  0.41901242    -0.79400
O107        O  0.97651139  0.10769194  0.45790465    -0.79400
O108        O  0.09618426  0.04504499  0.45766469    -0.79300
O109        O  0.92049200  0.97194503  0.47360348    -0.79400
Co110      Co  0.00298422  0.05859905  0.47719704     1.51500
Co111      Co  0.01082461  0.93953055  0.46669383     1.51700
Co112      Co  0.95835057  0.01485068  0.50061756     1.51600
Co113      Co  0.08034521  0.00376258  0.50519401     1.51500
O114        O  0.01874412  0.99894346  0.48630502    -1.41300
C115        C  0.07606251  0.05895828  0.42423367     1.10300
C116        C  0.92923274  0.95492487  0.43726725     1.10300
C117        C  0.94664952  0.08905506  0.43831309     1.10300
C118        C  0.09028320  0.94574520  0.42737293     1.10300
C119        C  0.74363458  0.75078355  0.26684938    -0.01700
C120        C  0.25982245  0.25539963  0.24416259    -0.01700
C121        C  0.73801586  0.25124431  0.24331965    -0.01700
C122        C  0.25530998  0.73748036  0.24022740    -0.01700
C123        C  0.24922284  0.25237211  0.75124350    -0.01700
C124        C  0.76242998  0.77273366  0.74425587    -0.01700
C125        C  0.15581570  0.22271099  0.67209565    -0.13600
C126        C  0.16238196  0.18089070  0.66520605     0.16800
C127        C  0.19529554  0.16127255  0.68841539     0.03100
C128        C  0.22078220  0.18394493  0.71770726    -0.12100
C129        C  0.21753808  0.22710021  0.72182885    -0.03100
C130        C  0.18227421  0.24589106  0.69988760     0.02300
C131        C  0.13360966  0.15811494  0.63468656     0.09200
N132        N  0.20444692  0.11864736  0.68139050     0.65500
H133        H  0.24361102  0.16690395  0.73646131     0.18400
N134        N  0.17100373  0.28793240  0.70690271     0.76000
H135        H  0.12957898  0.23768811  0.65568836     0.10000
C136        C  0.11083424  0.12316583  0.64860446     0.03700
C137        C  0.08910799  0.09931300  0.61730358    -0.05100
C138        C  0.08731460  0.11060772  0.57252963    -0.23500
C139        C  0.10772531  0.14718765  0.55922292     0.12900
C140        C  0.13062901  0.17046004  0.59038852    -0.12600
N141        N  0.10860304  0.11214004  0.69442868     0.64600
H142        H  0.07254062  0.07203988  0.62833504     0.12400
N143        N  0.10802439  0.15984185  0.51400928     0.61200
H144        H  0.14787434  0.19739706  0.57950636     0.08600
O145        O  0.19189656  0.31622587  0.68864993    -0.40300
O146        O  0.13524049  0.29609829  0.72344659    -0.39400
O147        O  0.20897680  0.10490662  0.64261142    -0.39400
O148        O  0.21343253  0.09597111  0.71372218    -0.37100
O149        O  0.09889921  0.19639037  0.50449947    -0.38000
O150        O  0.12505765  0.13728011  0.48506494    -0.34200
O151        O  0.10051520  0.13910535  0.72325410    -0.35600
O152        O  0.10958919  0.07492792  0.70562841    -0.39900
C153        C  0.22105374  0.16190578  0.31530560    -0.13600
C154        C  0.17746977  0.16028532  0.30653244     0.16800
C155        C  0.16085401  0.18828564  0.27568378     0.03100
C156        C  0.18702663  0.21874785  0.25730312    -0.12100
C157        C  0.23088943  0.22211678  0.26731135    -0.03100
C158        C  0.24792791  0.19033341  0.29452034     0.02300
C159        C  0.14950861  0.13157458  0.33232196     0.09200
N160        N  0.11779417  0.18502814  0.26085924     0.65500
H161        H  0.17264040  0.23798458  0.23267151     0.18400
N162        N  0.29255151  0.18464200  0.30016971     0.76000
H163        H  0.23486636  0.14059717  0.33847307     0.10000
C164        C  0.16126976  0.09060063  0.34189339     0.03700
C165        C  0.13708360  0.06725559  0.37189526    -0.05100
C166        C  0.09951106  0.08274387  0.39029051    -0.23500
C167        C  0.08639862  0.12253639  0.37852188     0.12900
C168        C  0.11190192  0.14678817  0.35111487    -0.12600
N169        N  0.19675319  0.07180151  0.32039266     0.64600
H170        H  0.14708447  0.03644462  0.38000722     0.12400
N171        N  0.04810113  0.13963683  0.39571569     0.61200
H172        H  0.10251908  0.17821710  0.34540105     0.08600
O173        O  0.30863645  0.19138698  0.33767550    -0.40300
O174        O  0.31100769  0.15954312  0.27483823    -0.39400
O175        O  0.09464392  0.21648465  0.25939197    -0.39400
O176        O  0.10428136  0.15164359  0.24488167    -0.37100
O177        O  0.04986021  0.16445210  0.42775167    -0.38000
O178        O  0.01473324  0.13762553  0.37280872    -0.34200
O179        O  0.22477951  0.05395248  0.34292311    -0.35600
O180        O  0.19720030  0.06838448  0.27883538    -0.39900
C181        C  0.91400094  0.85620163  0.62010681    -0.13600
C182        C  0.88393862  0.87703870  0.64568931     0.16800
C183        C  0.88176862  0.92016302  0.64333285     0.03100
C184        C  0.90788026  0.94128893  0.61342913    -0.12100
C185        C  0.93675551  0.92019025  0.58613404    -0.03100
C186        C  0.94028783  0.87723681  0.59056752     0.02300
C187        C  0.85336515  0.85255289  0.67200475     0.09200
N188        N  0.85357608  0.94280095  0.67132535     0.65500
H189        H  0.90486263  0.97428275  0.61093625     0.18400
N190        N  0.97070933  0.85440501  0.56573120     0.76000
H191        H  0.91622228  0.82310976  0.62213286     0.10000
C192        C  0.81016023  0.85080838  0.66114901     0.03700
C193        C  0.78271079  0.82576522  0.68566459    -0.05100
C194        C  0.79699800  0.79998964  0.72016978    -0.23500
C195        C  0.84090713  0.80443287  0.73243784     0.12900
C196        C  0.86813342  0.82955056  0.70750768    -0.12600
N197        N  0.79368063  0.87277602  0.62399375     0.64600
H198        H  0.75054299  0.82529970  0.67637816     0.12400
N199        N  0.85898966  0.78656083  0.77119652     0.61200
H200        H  0.90121699  0.83195802  0.71673732     0.08600
O201        O  0.95967812  0.83753010  0.52991804    -0.40300
O202        O  0.00423219  0.84285479  0.58457779    -0.39400
O203        O  0.85886537  0.94232063  0.71265113    -0.39400
O204        O  0.82787406  0.96798484  0.65473290    -0.37100
O205        O  0.85143451  0.80249214  0.80843583    -0.38000
O206        O  0.89113454  0.76386949  0.76712789    -0.34200
O207        O  0.81008851  0.86799369  0.58624670    -0.35600
O208        O  0.75963633  0.89275296  0.62766354    -0.39900
C209        C  0.20349883  0.84153607  0.28115284    -0.13600
C210        C  0.18409417  0.82891609  0.32026412     0.16800
C211        C  0.18453533  0.78711916  0.33102534     0.03100
C212        C  0.20606422  0.75925894  0.30371109    -0.12100
C213        C  0.22924326  0.77160658  0.26581668    -0.03100
C214        C  0.22466073  0.81388392  0.25313061     0.02300
C215        C  0.16165733  0.85987209  0.34783826     0.09200
N216        N  0.16237509  0.77222939  0.36901527     0.65500
H217        H  0.20554005  0.72745634  0.31306568     0.18400
N218        N  0.23772125  0.82968647  0.21109049     0.76000
H219        H  0.20108196  0.87341145  0.27151863     0.10000
C220        C  0.17579524  0.87101985  0.39051541     0.03700
C221        C  0.15337014  0.90062088  0.41505880    -0.05100
C222        C  0.11683748  0.91943483  0.39797735    -0.23500
C223        C  0.10329828  0.90839292  0.35485971     0.12900
C224        C  0.12573542  0.87904683  0.33042552    -0.12600
N225        N  0.21302846  0.85293321  0.40913875     0.64600
H226        H  0.16416486  0.90830411  0.44805958     0.12400
N227        N  0.06665091  0.92651668  0.33529312     0.61200
H228        H  0.11477598  0.87086751  0.29759452     0.08600
O229        O  0.26022135  0.86177150  0.20988273    -0.40300
O230        O  0.21760935  0.81927759  0.17678979    -0.39400
O231        O  0.12233318  0.77223160  0.36949742    -0.39400
O232        O  0.18230271  0.75313890  0.39858771    -0.37100
O233        O  0.03264230  0.90614173  0.33225470    -0.38000
O234        O  0.07003397  0.96029242  0.31544291    -0.34200
O235        O  0.24792966  0.85487801  0.38874407    -0.35600
O236        O  0.21212632  0.83892026  0.44793554    -0.39900
C237        C  0.77750058  0.84303983  0.34354451    -0.13600
C238        C  0.82165897  0.84167242  0.34137605     0.16800
C239        C  0.84101061  0.81088982  0.31571735     0.03100
C240        C  0.81567724  0.78368382  0.29108796    -0.12100
C241        C  0.77072067  0.78255923  0.29466311    -0.03100
C242        C  0.75195662  0.81473418  0.32076332     0.02300
C243        C  0.84671741  0.87381683  0.36481359     0.09200
N244        N  0.88633434  0.80592044  0.31539680     0.65500
H245        H  0.83247129  0.76334031  0.26932260     0.18400
N246        N  0.70725955  0.82219714  0.32198586     0.76000
H247        H  0.76240008  0.86738187  0.36226399     0.10000
C248        C  0.87635407  0.89894314  0.34246696     0.03700
C249        C  0.90206016  0.92605274  0.36669742    -0.05100
C250        C  0.89771979  0.93002306  0.41268095    -0.23500
C251        C  0.86665768  0.90631702  0.43464363     0.12900
C252        C  0.84175570  0.87838020  0.41064783    -0.12600
N253        N  0.88040046  0.89759948  0.29529134     0.64600
H254        H  0.92554073  0.94432996  0.34942779     0.12400
N255        N  0.86228042  0.90777713  0.48164405     0.61200
H256        H  0.81918787  0.85923517  0.42813635     0.08600
O257        O  0.68744163  0.81488511  0.35731271    -0.40300
O258        O  0.69276873  0.84966647  0.29699979    -0.39400
O259        O  0.90685382  0.80721371  0.35119098    -0.39400
O260        O  0.90520174  0.79516429  0.28041439    -0.37100
O261        O  0.87524817  0.87815339  0.50455032    -0.38000
O262        O  0.83879900  0.93454668  0.49919585    -0.34200
O263        O  0.84812117  0.90249910  0.27126382    -0.35600
O264        O  0.91670324  0.89655787  0.27764313    -0.39900
C265        C  0.88416205  0.17577587  0.38312021    -0.13600
C266        C  0.85730016  0.15422906  0.35422169     0.16800
C267        C  0.86095194  0.11110427  0.35201502     0.03100
C268        C  0.89024652  0.09050724  0.37916873    -0.12100
C269        C  0.91657464  0.11201337  0.40896783    -0.03100
C270        C  0.91313826  0.15543397  0.41059223     0.02300
C271        C  0.82608546  0.17762366  0.32671580     0.09200
N272        N  0.83414803  0.08764169  0.32337506     0.65500
H273        H  0.89206682  0.05739201  0.37713925     0.18400
N274        N  0.93754406  0.17953826  0.44107006     0.76000
H275        H  0.88209230  0.20889388  0.38497162     0.10000
C276        C  0.79665535  0.20467626  0.34614856     0.03700
C277        C  0.76983627  0.22854953  0.31965915    -0.05100
C278        C  0.77040147  0.22627457  0.27279992    -0.23500
C279        C  0.79970919  0.19760395  0.25373684     0.12900
C280        C  0.82714633  0.17460137  0.28057780    -0.12600
N281        N  0.79188193  0.20661225  0.39312729     0.64600
H282        H  0.74669086  0.24684712  0.33695304     0.12400
N283        N  0.80195035  0.19067622  0.20703909     0.61200
H284        H  0.84975862  0.15419943  0.26497351     0.08600
O285        O  0.93066390  0.17641862  0.48201590    -0.40300
O286        O  0.95975959  0.20901776  0.42704774    -0.39400
O287        O  0.84936604  0.07149496  0.28888970    -0.39400
O288        O  0.79705735  0.07836489  0.33558771    -0.37100
O289        O  0.83136431  0.20747670  0.18526007    -0.38000
O290        O  0.78467493  0.15884119  0.19133309    -0.34200
O291        O  0.79667276  0.24031830  0.41316966    -0.35600
O292        O  0.77726806  0.17607593  0.41366870    -0.39900
C293        C  0.12506611  0.83393398  0.59877552    -0.13600
C294        C  0.13653127  0.85081682  0.63987854     0.16800
C295        C  0.12362990  0.89098082  0.65011220     0.03100
C296        C  0.10064254  0.91382172  0.61917116    -0.12100
C297        C  0.09028372  0.89781630  0.57708740    -0.03100
C298        C  0.10235360  0.85695246  0.56737866     0.02300
C299        C  0.16390434  0.82712701  0.67078240     0.09200
N300        N  0.13513622  0.90962338  0.69123390     0.65500
H301        H  0.09181900  0.94487753  0.62796846     0.18400
N302        N  0.09367390  0.83890795  0.52522457     0.76000
H303        H  0.13495889  0.80306701  0.59047442     0.10000
C304        C  0.14672865  0.80428945  0.70563971     0.03700
C305        C  0.17349949  0.78230799  0.73404197    -0.05100
C306        C  0.21831396  0.78024130  0.72777120    -0.23500
C307        C  0.23516517  0.80788346  0.69536418     0.12900
C308        C  0.20801472  0.82956586  0.66688019    -0.12600
N309        N  0.10186805  0.80295186  0.71258606     0.64600
H310        H  0.15802485  0.76715377  0.76125991     0.12400
N311        N  0.27972296  0.81474245  0.69034678     0.61200
H312        H  0.22167392  0.84913038  0.64170429     0.08600
O313        O  0.06715716  0.80996396  0.52220362    -0.40300
O314        O  0.11801401  0.84633044  0.49311156    -0.39400
O315        O  0.16788584  0.93191198  0.69336343    -0.39400
O316        O  0.10892583  0.90991567  0.72277392    -0.37100
O317        O  0.29680351  0.80654800  0.65361075    -0.38000
O318        O  0.29745761  0.84084762  0.71515318    -0.34200
O319        O  0.07903700  0.77999688  0.68872324    -0.35600
O320        O  0.08591062  0.82028355  0.74602272    -0.39900
C321        C  0.66749593  0.15483793  0.21913266    -0.13600
C322        C  0.66482643  0.15466564  0.17312034     0.16800
C323        C  0.68792187  0.18419259  0.14915265     0.03100
C324        C  0.71183631  0.21412125  0.17180073    -0.12100
C325        C  0.71214237  0.21701642  0.21857431    -0.03100
C326        C  0.69118342  0.18454484  0.24200866     0.02300
C327        C  0.63699919  0.12370154  0.15123622     0.09200
N328        N  0.68679105  0.18480350  0.10179887     0.65500
H329        H  0.73051925  0.23471674  0.15192029     0.18400
N330        N  0.69567542  0.17912076  0.28875488     0.76000
H331        H  0.65113585  0.13122890  0.23770540     0.10000
C332        C  0.65308849  0.09249714  0.12349480     0.03700
C333        C  0.62490236  0.06582993  0.10146730    -0.05100
C334        C  0.58080495  0.06855487  0.10796940    -0.23500
C335        C  0.56502475  0.09910634  0.13690286     0.12900
C336        C  0.59311219  0.12630553  0.15788944    -0.12600
N337        N  0.69784230  0.08688137  0.11835197     0.64600
H338        H  0.63752671  0.04260414  0.07941281     0.12400
N339        N  0.52046331  0.10527368  0.14260781     0.61200
H340        H  0.58044823  0.15029669  0.17896107     0.08600
O341        O  0.71389306  0.14737864  0.30286542    -0.40300
O342        O  0.67432463  0.20057114  0.31539901    -0.39400
O343        O  0.65171434  0.18704189  0.08187694    -0.39400
O344        O  0.72085529  0.18771622  0.08003282    -0.37100
O345        O  0.49996010  0.08243890  0.16859813    -0.38000
O346        O  0.50414434  0.13849775  0.13007991    -0.34200
O347        O  0.72020514  0.07803560  0.15151304    -0.35600
O348        O  0.71391285  0.08480836  0.08019475    -0.39900
C349        C  0.34735893  0.10901669  0.11901511    -0.13600
C350        C  0.35817094  0.15069734  0.12161360     0.16800
C351        C  0.39472833  0.16467688  0.09907519     0.03100
C352        C  0.42072995  0.13664945  0.07676773    -0.12100
C353        C  0.41047333  0.09478212  0.07496167    -0.03100
C354        C  0.37234291  0.08133578  0.09515032     0.02300
C355        C  0.33360099  0.17814967  0.15156841     0.09200
N356        N  0.40597148  0.20723591  0.09870834     0.65500
H357        H  0.44930798  0.14782512  0.06088655     0.18400
N358        N  0.35869282  0.03958531  0.09249209     0.76000
H359        H  0.31980824  0.09751687  0.13652069     0.10000
C360        C  0.28898500  0.17882673  0.15180012     0.03700
C361        C  0.26763224  0.20311567  0.18278298    -0.05100
C362        C  0.28907466  0.22886820  0.21352711    -0.23500
C363        C  0.33459615  0.22659425  0.21380257     0.12900
C364        C  0.35551486  0.20140905  0.18314363    -0.12600
N365        N  0.26470206  0.15637033  0.11971711     0.64600
H366        H  0.23332142  0.20365972  0.18108263     0.12400
N367        N  0.36116730  0.24795463  0.24463984     0.61200
H368        H  0.38977632  0.19920295  0.18491496     0.08600
O369        O  0.33721544  0.02776118  0.05962620    -0.40300
O370        O  0.36203111  0.01663851  0.12574691    -0.39400
O371        O  0.44260065  0.21850866  0.11057719    -0.39400
O372        O  0.38042201  0.23326179  0.08343202    -0.37100
O373        O  0.36435934  0.23493808  0.28364444    -0.38000
O374        O  0.38998910  0.27120310  0.22996232    -0.34200
O375        O  0.23354800  0.13471368  0.13182813    -0.35600
O376        O  0.27178794  0.16119289  0.07901016    -0.39900
C377        C  0.30725564  0.77044603  0.12662575    -0.13600
C378        C  0.33781456  0.79790511  0.14211937     0.16800
C379        C  0.34158590  0.80507296  0.18755050     0.03100
C380        C  0.31495531  0.78450513  0.21688333    -0.12100
C381        C  0.28262636  0.75708999  0.20248127    -0.03100
C382        C  0.27994212  0.74960224  0.15565001     0.02300
C383        C  0.36380782  0.82141209  0.11059799     0.09200
N384        N  0.37070278  0.83512035  0.20426150     0.65500
H385        H  0.31824861  0.79164222  0.25170945     0.18400
N386        N  0.25121201  0.72097905  0.13581863     0.76000
H387        H  0.30466901  0.76498744  0.09136186     0.10000
C388        C  0.40630977  0.81123978  0.10176495     0.03700
C389        C  0.43196319  0.83855317  0.07798467    -0.05100
C390        C  0.41569211  0.87610287  0.06292260    -0.23500
C391        C  0.37176633  0.88408920  0.06823526     0.12900
C392        C  0.34654606  0.85687468  0.09246344    -0.12600
N393        N  0.42409103  0.77403157  0.11807747     0.64600
H394        H  0.46529096  0.83145797  0.07377449     0.12400
N395        N  0.35237323  0.91993133  0.05007763     0.61200
H396        H  0.31344387  0.86401444  0.09836989     0.08600
O397        O  0.25971212  0.68328602  0.13694768    -0.40300
O398        O  0.22565270  0.73356336  0.10683128    -0.39400
O399        O  0.36411044  0.87267025  0.19726817    -0.39400
O400        O  0.39948490  0.82470009  0.23083638    -0.37100
O401        O  0.32568833  0.93986906  0.07259832    -0.38000
O402        O  0.35689989  0.92798835  0.00959415    -0.34200
O403        O  0.42837867  0.74371090  0.09244323    -0.35600
O404        O  0.44080876  0.77329443  0.15592002    -0.39900
C405        C  0.66256261  0.84157862  0.77196319    -0.13600
C406        C  0.67916395  0.86681189  0.80504594     0.16800
C407        C  0.72261383  0.86440060  0.81470215     0.03100
C408        C  0.74772428  0.83463510  0.79396457    -0.12100
C409        C  0.73084548  0.80541615  0.76397119    -0.03100
C410        C  0.68771365  0.81258384  0.74975698     0.02300
C411        C  0.64980012  0.89156324  0.83281689     0.09200
N412        N  0.74175386  0.89234445  0.84538086     0.65500
H413        H  0.78095046  0.83382480  0.80234456     0.18400
N414        N  0.66885266  0.79399826  0.71135490     0.76000
H415        H  0.62943348  0.84456769  0.76297244     0.10000
C416        C  0.62136293  0.92048638  0.81490938     0.03700
C417        C  0.59081605  0.93924085  0.84232025    -0.05100
C418        C  0.58866226  0.93013129  0.88759381    -0.23500
C419        C  0.61690933  0.90060472  0.90499416     0.12900
C420        C  0.64708252  0.88208509  0.87773808    -0.12600
N421        N  0.62413548  0.93205345  0.76943652     0.64600
H422        H  0.56970182  0.96195211  0.82850742     0.12400
N423        N  0.61391541  0.88722848  0.94984472     0.61200
H424        H  0.66753862  0.85874834  0.89149543     0.08600
O425        O  0.63425035  0.77477863  0.71556432    -0.40300
O426        O  0.67785971  0.80810528  0.67376076    -0.39400
O427        O  0.75882861  0.87915693  0.88019070    -0.39400
O428        O  0.74482304  0.92984824  0.83583750    -0.37100
O429        O  0.58495600  0.86246086  0.96085533    -0.38000
O430        O  0.64379467  0.89482830  0.97640228    -0.34200
O431        O  0.59139222  0.93160863  0.74546932    -0.35600
O432        O  0.65838975  0.94649226  0.75433189    -0.39900
C433        C  0.33928654  0.17397054  0.78182970    -0.13600
C434        C  0.33593151  0.17111630  0.82781521     0.16800
C435        C  0.30760377  0.19786334  0.84952169     0.03100
C436        C  0.28223245  0.22481581  0.82493571    -0.12100
C437        C  0.28124540  0.22438431  0.77799223    -0.03100
C438        C  0.31315785  0.19983672  0.75698929     0.02300
C439        C  0.36471232  0.14225063  0.85202565     0.09200
N440        N  0.30321724  0.19751795  0.89659735     0.65500
H441        H  0.26271541  0.24557272  0.84381730     0.18400
N442        N  0.32066271  0.20072463  0.71041983     0.76000
H443        H  0.36315596  0.15615886  0.76461754     0.10000
C444        C  0.37213784  0.10190333  0.83634438     0.03700
C445        C  0.40373435  0.07773523  0.85587348    -0.05100
C446        C  0.42605946  0.09117343  0.89331616    -0.23500
C447        C  0.41819672  0.13113881  0.90956763     0.12900
C448        C  0.38836695  0.15630173  0.88847773    -0.12600
N449        N  0.34681880  0.08445523  0.80165715     0.64600
H450        H  0.40990602  0.04756922  0.84254090     0.12400
N451        N  0.44247104  0.14793630  0.94524544     0.61200
H452        H  0.38500770  0.18766457  0.89974200     0.08600
O453        O  0.34795362  0.22568421  0.69591956    -0.40300
O454        O  0.31348474  0.16855162  0.68827561    -0.39400
O455        O  0.30932591  0.22997695  0.91858872    -0.39400
O456        O  0.28873632  0.16610744  0.91565368    -0.37100
O457        O  0.48180334  0.15350611  0.94026304    -0.38000
O458        O  0.42373187  0.16514050  0.97714377    -0.34200
O459        O  0.36426627  0.06555819  0.77004558    -0.35600
O460        O  0.30687618  0.08428133  0.80488788    -0.39900
C461        C  0.61242583  0.89349561  0.18304413    -0.13600
C462        C  0.63645995  0.86247289  0.16274282     0.16800
C463        C  0.63395665  0.85683618  0.11675342     0.03100
C464        C  0.60765366  0.88210110  0.09182563    -0.12100
C465        C  0.58272955  0.91267438  0.11191242    -0.03100
C466        C  0.58558818  0.91860256  0.15797182     0.02300
C467        C  0.66307084  0.83520019  0.18989702     0.09200
N468        N  0.65622428  0.82418264  0.09525480     0.65500
H469        H  0.60533463  0.87648018  0.05660541     0.18400
N470        N  0.56272754  0.95077050  0.17940305     0.76000
H471        H  0.61451139  0.89813501  0.21845705     0.10000
C472        C  0.70752191  0.83693830  0.18841178     0.03700
C473        C  0.73126777  0.80909581  0.21305913    -0.05100
C474        C  0.71220758  0.77833656  0.23970226    -0.23500
C475        C  0.66648779  0.77774998  0.24122187     0.12900
C476        C  0.64322759  0.80565716  0.21588580    -0.12600
N477        N  0.72907933  0.86736514  0.16273996     0.64600
H478        H  0.76554729  0.81153575  0.21154155     0.12400
N479        N  0.64206437  0.75162910  0.26947996     0.61200
H480        H  0.60884386  0.80469175  0.21710718     0.08600
O481        O  0.58083345  0.98467443  0.18680986    -0.40300
O482        O  0.52717872  0.94330712  0.19686933    -0.39400
O483        O  0.64465431  0.78756747  0.10138483    -0.39400
O484        O  0.68281446  0.83212220  0.06525546    -0.37100
O485        O  0.63949556  0.75991828  0.31013133    -0.38000
O486        O  0.61423455  0.72850164  0.25251865    -0.34200
O487        O  0.72263759  0.90491078  0.17029242    -0.35600
O488        O  0.75835967  0.85695808  0.13654218    -0.39900
C489        C  0.34902824  0.90032250  0.86954061    -0.13600
C490        C  0.35093397  0.85762775  0.87350686     0.16800
C491        C  0.38160017  0.84060803  0.90196330     0.03100
C492        C  0.41106008  0.86615133  0.92347434    -0.12100
C493        C  0.41021528  0.90901776  0.91839133    -0.03100
C494        C  0.37741344  0.92617369  0.89221866     0.02300
C495        C  0.32459358  0.83135469  0.84356014     0.09200
N496        N  0.38335278  0.79732721  0.90911266     0.65500
H497        H  0.43492225  0.85217913  0.94423528     0.18400
N498        N  0.37322831  0.96947969  0.88626638     0.76000
H499        H  0.32597649  0.91383014  0.84749527     0.10000
C500        C  0.28067457  0.83711579  0.83788524     0.03700
C501        C  0.25813000  0.81228136  0.80794433    -0.05100
C502        C  0.27770472  0.78030606  0.78338230    -0.23500
C503        C  0.32329724  0.77873486  0.78534045     0.12900
C504        C  0.34521505  0.80313334  0.81619925    -0.12600
N505        N  0.25793520  0.86664241  0.86374686     0.64600
H506        H  0.22403537  0.81608013  0.80640606     0.12400
N507        N  0.34912035  0.75576420  0.75511697     0.61200
H508        H  0.37954021  0.80145599  0.81729350     0.08600
O509        O  0.36299074  0.99173254  0.91877956    -0.40300
O510        O  0.36841592  0.98327534  0.84771848    -0.39400
O511        O  0.41636502  0.77760522  0.89897638    -0.39400
O512        O  0.35395997  0.77971168  0.93016857    -0.37100
O513        O  0.34915569  0.76507060  0.71474032    -0.38000
O514        O  0.38012702  0.73563914  0.76990642    -0.34200
O515        O  0.23448596  0.89255187  0.84498387    -0.35600
O516        O  0.25820942  0.86455290  0.90537676    -0.39900
C517        C  0.83935507  0.20550463  0.66885152    -0.13600
C518        C  0.83868073  0.16304694  0.67455826     0.16800
C519        C  0.81465922  0.14624610  0.70926454     0.03100
C520        C  0.78925166  0.17192614  0.73525699    -0.12100
C521        C  0.78697473  0.21485103  0.72816381    -0.03100
C522        C  0.81511604  0.23149270  0.69565963     0.02300
C523        C  0.86210952  0.13685354  0.64276859     0.09200
N524        N  0.81667072  0.10333806  0.71940314     0.65500
H525        H  0.77277588  0.15759168  0.76237426     0.18400
N526        N  0.82042993  0.27472220  0.68965785     0.76000
H527        H  0.85889481  0.21874574  0.64305771     0.10000
C528        C  0.84116954  0.10659911  0.61734390     0.03700
C529        C  0.86454414  0.08285779  0.58744187    -0.05100
C530        C  0.90823049  0.08961593  0.58053747    -0.23500
C531        C  0.92897549  0.12011956  0.60605554     0.12900
C532        C  0.90585306  0.14291297  0.63717473    -0.12600
N533        N  0.79601230  0.10084021  0.61991599     0.64600
H534        H  0.84775036  0.05998142  0.56809517     0.12400
N535        N  0.97309964  0.12910463  0.60053510     0.61200
H536        H  0.92203567  0.16619327  0.65657304     0.08600
O537        O  0.85121520  0.29225936  0.70864571    -0.40300
O538        O  0.80492326  0.29127855  0.65574732    -0.39400
O539        O  0.85215618  0.08576263  0.72251086    -0.39400
O540        O  0.78337463  0.08394141  0.72966871    -0.37100
O541        O  0.98531533  0.14809072  0.56655291    -0.38000
O542        O  0.99747137  0.12709808  0.63349519    -0.34200
O543        O  0.77148602  0.13126231  0.61756524    -0.35600
O544        O  0.78044374  0.06512812  0.61917753    -0.39900
C545        C  0.65837299  0.10449443  0.88625243    -0.13600
C546        C  0.65403712  0.14705441  0.88202702     0.16800
C547        C  0.62065802  0.16725481  0.90395504     0.03100
C548        C  0.59190988  0.14461587  0.92915532    -0.12100
C549        C  0.59455210  0.10174079  0.93149262    -0.03100
C550        C  0.62917501  0.08161319  0.91119562     0.02300
C551        C  0.68239636  0.16966416  0.85184984     0.09200
N552        N  0.61307276  0.21003277  0.89744963     0.65500
H553        H  0.56561446  0.16055338  0.94448119     0.18400
N554        N  0.63574074  0.03846618  0.91653854     0.76000
H555        H  0.68446803  0.08905993  0.86989751     0.10000
C556        C  0.71277317  0.19766727  0.86746379     0.03700
C557        C  0.73600470  0.22141009  0.83751528    -0.05100
C558        C  0.73124793  0.21683287  0.79110987    -0.23500
C559        C  0.69878127  0.18916663  0.77622998     0.12900
C560        C  0.67565046  0.16581910  0.80653534    -0.12600
N561        N  0.72062114  0.20214156  0.91376364     0.64600
H562        H  0.75706476  0.24400640  0.85166056     0.12400
N563        N  0.68634747  0.18635600  0.73081964     0.61200
H564        H  0.65095335  0.14540193  0.79453184     0.08600
O565        O  0.63781769  0.02344380  0.95484231    -0.40300
O566        O  0.64554191  0.01653186  0.88364042    -0.39400
O567        O  0.60351542  0.22263906  0.85941283    -0.39400
O568        O  0.60715206  0.23320105  0.93038223    -0.37100
O569        O  0.70382551  0.16034698  0.70585666    -0.38000
O570        O  0.65088182  0.20084663  0.71962053    -0.34200
O571        O  0.74940666  0.18115518  0.93159593    -0.35600
O572        O  0.70494987  0.23208621  0.93456448    -0.39900
C573        C  0.21491563  0.32798152  0.15020382    -0.13600
C574        C  0.18331669  0.34899634  0.17336486     0.16800
C575        C  0.17708120  0.33989241  0.21816095     0.03100
C576        C  0.20211028  0.31022577  0.23875877    -0.12100
C577        C  0.23326436  0.28710255  0.21595328    -0.03100
C578        C  0.24039679  0.29814764  0.17041561     0.02300
C579        C  0.15513999  0.37789574  0.14920673     0.09200
N580        N  0.14570288  0.36102190  0.24356810     0.65500
H581        H  0.19658856  0.30493028  0.27333153     0.18400
N582        N  0.27405690  0.28186727  0.14379123     0.76000
H583        H  0.22009724  0.33498025  0.11562872     0.10000
C584        C  0.17149224  0.41110184  0.12457885     0.03700
C585        C  0.14445961  0.43414056  0.09736299    -0.05100
C586        C  0.10086015  0.42532222  0.09500824    -0.23500
C587        C  0.08450530  0.39243768  0.12041865     0.12900
C588        C  0.11159893  0.36936148  0.14713040    -0.12600
N589        N  0.21529196  0.42231740  0.12779260     0.64600
H590        H  0.15748485  0.45938367  0.07849125     0.12400
N591        N  0.04105415  0.37992767  0.11693764     0.61200
H592        H  0.09880362  0.34322855  0.16474032     0.08600
O593        O  0.31120195  0.29572605  0.14859629    -0.40300
O594        O  0.26484966  0.26384260  0.10803311    -0.39400
O595        O  0.11414679  0.34165217  0.25861512    -0.39400
O596        O  0.15252196  0.39739068  0.25610191    -0.37100
O597        O  0.01751145  0.38073219  0.15068073    -0.38000
O598        O  0.02837871  0.36176325  0.08245511    -0.34200
O599        O  0.23830912  0.42275799  0.09365379    -0.35600
O600        O  0.22984639  0.43584735  0.16387756    -0.39900
C601        C  0.09072628  0.62761837  0.15733584    -0.13600
C602        C  0.13494319  0.62449110  0.15429845     0.16800
C603        C  0.15271512  0.59509667  0.12564051     0.03100
C604        C  0.12629403  0.57101704  0.09889875    -0.12100
C605        C  0.08195207  0.57594128  0.09949759    -0.03100
C606        C  0.06403195  0.60378039  0.13040580     0.02300
C607        C  0.16224932  0.65306589  0.17994760     0.09200
N608        N  0.19766069  0.59176594  0.12060821     0.65500
H609        H  0.14086676  0.54977456  0.07584922     0.18400
N610        N  0.01921990  0.61027839  0.13330154     0.76000
H611        H  0.07684129  0.64953070  0.18012035     0.10000
C612        C  0.15868836  0.69577263  0.17558733     0.03700
C613        C  0.18698991  0.72149474  0.19823279    -0.05100
C614        C  0.22067295  0.70603518  0.22414011    -0.23500
C615        C  0.21832646  0.66316719  0.23473446     0.12900
C616        C  0.19089756  0.63740803  0.21062853    -0.12600
N617        N  0.12829350  0.71353404  0.14620363     0.64600
H618        H  0.18448094  0.75394331  0.19253731     0.12400
N619        N  0.23965575  0.64514689  0.27173324     0.61200
H620        H  0.19060030  0.60478486  0.21724399     0.08600
O621        O  0.00495178  0.64628451  0.13087911    -0.40300
O622        O  0.99556058  0.58217707  0.14803312    -0.39400
O623        O  0.21665383  0.56074489  0.13537983    -0.39400
O624        O  0.21693247  0.61588857  0.09496941    -0.37100
O625        O  0.23171179  0.65799759  0.31022089    -0.38000
O626        O  0.25642874  0.61026352  0.26743646    -0.34200
O627        O  0.10384081  0.74140880  0.15987180    -0.35600
O628        O  0.12796288  0.70364114  0.10582545    -0.39900
C629        C  0.83826699  0.61358136  0.13096005    -0.13600
C630        C  0.85081386  0.65293267  0.14445752     0.16800
C631        C  0.88788029  0.67025821  0.12668852     0.03100
C632        C  0.91144969  0.64852727  0.09518221    -0.12100
C633        C  0.89959216  0.60871612  0.08163711    -0.03100
C634        C  0.86193332  0.59139545  0.09952097     0.02300
C635        C  0.82351533  0.67682661  0.17492313     0.09200
N636        N  0.90233412  0.70970183  0.14105904     0.65500
H637        H  0.93959001  0.66290944  0.08166033     0.18400
N638        N  0.84584286  0.55260340  0.08454651     0.76000
H639        H  0.80912073  0.60059275  0.14391142     0.10000
C640        C  0.79257971  0.70343134  0.15862999     0.03700
C641        C  0.76711449  0.72587477  0.18781670    -0.05100
C642        C  0.77258940  0.72441714  0.23443900    -0.23500
C643        C  0.80244968  0.69459797  0.25016416     0.12900
C644        C  0.82769453  0.67216865  0.22044898    -0.12600
N645        N  0.78597999  0.70735143  0.11213295     0.64600
H646        H  0.74223880  0.74342331  0.17265067     0.12400
N647        N  0.80726709  0.68549575  0.29607722     0.61200
H648        H  0.85056629  0.65048165  0.23316118     0.08600
O649        O  0.83618227  0.54787165  0.04438453    -0.40300
O650        O  0.83320223  0.52649624  0.11229239    -0.39400
O651        O  0.92371326  0.71292939  0.17614027    -0.39400
O652        O  0.89816515  0.74038406  0.11625024    -0.37100
O653        O  0.78740092  0.65505135  0.31142475    -0.38000
O654        O  0.84082443  0.69685722  0.31536184    -0.34200
O655        O  0.75586595  0.68816638  0.09386149    -0.35600
O656        O  0.80551777  0.73480757  0.09098312    -0.39900
C657        C  0.09949864  0.67065138  0.89402489    -0.13600
C658        C  0.12757975  0.65161046  0.86422058     0.16800
C659        C  0.12811132  0.60840443  0.86159492     0.03100
C660        C  0.09956765  0.58547832  0.88709803    -0.12100
C661        C  0.07183035  0.60426173  0.91752815    -0.03100
C662        C  0.07219377  0.64745064  0.92099467     0.02300
C663        C  0.15709294  0.67716058  0.83723716     0.09200
N664        N  0.15920879  0.58724269  0.83547310     0.65500
H665        H  0.10088914  0.55235716  0.88474788     0.18400
N666        N  0.04541239  0.66823781  0.95185041     0.76000
H667        H  0.09918417  0.70378239  0.89675921     0.10000
C668        C  0.15879560  0.67438571  0.79082212     0.03700
C669        C  0.18965004  0.69671766  0.76750207    -0.05100
C670        C  0.21830381  0.72428309  0.78854298    -0.23500
C671        C  0.21724815  0.72498143  0.83618533     0.12900
C672        C  0.18630644  0.70228519  0.85902113    -0.12600
N673        N  0.12840059  0.65029062  0.76668045     0.64600
H674        H  0.18959820  0.69448230  0.73177008     0.12400
N675        N  0.24806860  0.74552046  0.86321397     0.61200
H676        H  0.18628154  0.70289080  0.89485124     0.08600
O677        O  0.01184795  0.68514848  0.93858599    -0.40300
O678        O  0.05856437  0.67523085  0.99054094    -0.39400
O679        O  0.19807109  0.59575601  0.84001328    -0.39400
O680        O  0.14866146  0.55609545  0.81308213    -0.37100
O681        O  0.23547725  0.76848889  0.89423799    -0.38000
O682        O  0.28553130  0.73218119  0.86453631    -0.34200
O683        O  0.08932168  0.65340555  0.77522897    -0.35600
O684        O  0.14005293  0.62910215  0.73386184    -0.39900
C685        C  0.82445933  0.62009462  0.87871331    -0.13600
C686        C  0.84882008  0.65008334  0.85736154     0.16800
C687        C  0.89341090  0.64931104  0.86220435     0.03100
C688        C  0.91251227  0.61896576  0.88845107    -0.12100
C689        C  0.88811333  0.58921618  0.91070515    -0.03100
C690        C  0.84345130  0.58974152  0.90480246     0.02300
C691        C  0.82697979  0.68132999  0.82955999     0.09200
N692        N  0.91954734  0.68024251  0.84243226     0.65500
H693        H  0.94664734  0.61967416  0.89267860     0.18400
N694        N  0.81658834  0.56016057  0.92558357     0.76000
H695        H  0.79026861  0.62008428  0.87484117     0.10000
C696        C  0.83173536  0.68212105  0.78344929     0.03700
C697        C  0.81115745  0.71235847  0.75868276    -0.05100
C698        C  0.78434335  0.74260877  0.77794937    -0.23500
C699        C  0.77934993  0.74076132  0.82514139     0.12900
C700        C  0.80090815  0.71062163  0.84966583    -0.12600
N701        N  0.85636579  0.65161398  0.76099193     0.64600
H702        H  0.81613828  0.71213102  0.72326438     0.12400
N703        N  0.75323087  0.76829191  0.84989991     0.61200
H704        H  0.79692636  0.70989835  0.88523813     0.08600
O705        O  0.81168437  0.52532044  0.90798206    -0.40300
O706        O  0.79222193  0.57115419  0.95652259    -0.39400
O707        O  0.91260045  0.71760352  0.85055947    -0.39400
O708        O  0.95265891  0.67024189  0.82156242    -0.37100
O709        O  0.71358721  0.76300314  0.85048275    -0.38000
O710        O  0.76999961  0.78941233  0.88031442    -0.34200
O711        O  0.84706952  0.61416289  0.76517367    -0.35600
O712        O  0.88384774  0.66216961  0.73284540    -0.39900
C713        C  0.12501764  0.33578559  0.91106111    -0.13600
C714        C  0.13047377  0.34650593  0.86638617     0.16800
C715        C  0.10620466  0.37929475  0.84934382     0.03100
C716        C  0.08011306  0.40214219  0.87780055    -0.12100
C717        C  0.07562828  0.39230757  0.92276185    -0.03100
C718        C  0.09786167  0.35809507  0.93911920     0.02300
C719        C  0.16234446  0.32373527  0.83882708     0.09200
N720        N  0.10709310  0.38954642  0.80326988     0.65500
H721        H  0.06305511  0.42802496  0.86447513     0.18400
N722        N  0.09555440  0.34719485  0.98471092     0.76000
H723        H  0.14315467  0.31071566  0.92473974     0.10000
C724        C  0.19393458  0.34387202  0.81370410     0.03700
C725        C  0.22101540  0.32098087  0.78612632    -0.05100
C726        C  0.21983131  0.27750088  0.78399594    -0.23500
C727        C  0.18808863  0.25779648  0.81051001     0.12900
C728        C  0.16034500  0.28088688  0.83702710    -0.12600
N729        N  0.19956280  0.38757005  0.81612770     0.64600
H730        H  0.24242219  0.33842375  0.76581239     0.12400
N731        N  0.18185819  0.21429326  0.80963533     0.61200
H732        H  0.13610442  0.26495249  0.85578410     0.08600
O733        O  0.12056400  0.36376948  0.01204419    -0.40300
O734        O  0.07385162  0.31646808  0.99622100    -0.39400
O735        O  0.10305399  0.36176852  0.77443546    -0.39400
O736        O  0.10626587  0.42660211  0.79143671    -0.37100
O737        O  0.19695073  0.19301267  0.84052161    -0.38000
O738        O  0.15108310  0.19993688  0.78777412    -0.34200
O739        O  0.20019739  0.40554480  0.85315177    -0.35600
O740        O  0.20830930  0.40769432  0.78173380    -0.39900
C741        C  0.85912211  0.40004852  0.15422631    -0.13600
C742        C  0.83276594  0.37167394  0.13228179     0.16800
C743        C  0.82807864  0.37505086  0.08593534     0.03100
C744        C  0.85093450  0.40511570  0.06262612    -0.12100
C745        C  0.87986963  0.43117479  0.08429453    -0.03100
C746        C  0.88304080  0.42905564  0.13077241     0.02300
C747        C  0.80966716  0.33970259  0.15850648     0.09200
N748        N  0.80255077  0.34644943  0.06164345     0.65500
H749        H  0.84835933  0.40598260  0.02694076     0.18400
N750        N  0.91062029  0.45603396  0.15469834     0.76000
H751        H  0.86175410  0.39928385  0.18990033     0.10000
C752        C  0.83046330  0.31552134  0.19015674     0.03700
C753        C  0.80722280  0.28831642  0.21671462    -0.05100
C754        C  0.76288489  0.28170301  0.21154318    -0.23500
C755        C  0.74220388  0.30824723  0.18067172     0.12900
C756        C  0.76565305  0.33584077  0.15462683    -0.12600
N757        N  0.87554947  0.31783173  0.19558805     0.64600
H758        H  0.82506779  0.27274408  0.24190033     0.12400
N759        N  0.69713366  0.31006577  0.17655594     0.61200
H760        H  0.74877289  0.35579362  0.13220759     0.08600
O761        O  0.89588325  0.48837870  0.17169237    -0.40300
O762        O  0.94690491  0.44378724  0.16608878    -0.39400
O763        O  0.77292829  0.35918721  0.03733793    -0.39400
O764        O  0.81306689  0.30918624  0.05992170    -0.37100
O765        O  0.68049761  0.29727260  0.14112818    -0.38000
O766        O  0.67773632  0.33721029  0.19842117    -0.34200
O767        O  0.89121746  0.32536521  0.23313571    -0.35600
O768        O  0.89975175  0.30872671  0.16379707    -0.39900
C769        C  0.84979864  0.28560715  0.83155875    -0.13600
C770        C  0.84281112  0.32784537  0.83017528     0.16800
C771        C  0.81165514  0.34322174  0.80161597     0.03100
C772        C  0.78682688  0.31596248  0.77662961    -0.12100
C773        C  0.78968619  0.27282413  0.78170626    -0.03100
C774        C  0.82432932  0.25815531  0.80774723     0.02300
C775        C  0.86834851  0.35508753  0.85920310     0.09200
N776        N  0.80332520  0.38632922  0.79922304     0.65500
H777        H  0.76446771  0.32947667  0.75409979     0.18400
N778        N  0.83504574  0.21561527  0.81004800     0.76000
H779        H  0.87520188  0.27367157  0.85185608     0.10000
C780        C  0.86856320  0.34903646  0.90526705     0.03700
C781        C  0.89413619  0.37374528  0.93206533    -0.05100
C782        C  0.91871091  0.40567266  0.91421427    -0.23500
C783        C  0.91872670  0.41163453  0.86809017     0.12900
C784        C  0.89378834  0.38619416  0.84093382    -0.12600
N785        N  0.84153647  0.31906307  0.92548880     0.64600
H786        H  0.89309542  0.36908177  0.96748084     0.12400
N787        N  0.94523477  0.44204682  0.84827159     0.61200
H788        H  0.89456048  0.39045277  0.80545264     0.08600
O789        O  0.86520163  0.20266823  0.78637104    -0.40300
O790        O  0.82500579  0.19556337  0.84406435    -0.39400
O791        O  0.80007155  0.40355069  0.76213465    -0.39400
O792        O  0.79465158  0.40628576  0.83389805    -0.37100
O793        O  0.98316772  0.43345449  0.83877556    -0.38000
O794        O  0.92911788  0.47470550  0.83389020    -0.34200
O795        O  0.85682425  0.29333125  0.95203669    -0.35600
O796        O  0.80187260  0.32064481  0.92000357    -0.39900
C797        C  0.68446702  0.68885668  0.70002733    -0.13600
C798        C  0.69412168  0.68654365  0.65508784     0.16800
C799        C  0.72739937  0.71089828  0.63852628     0.03100
C800        C  0.74920595  0.73813359  0.66685899    -0.12100
C801        C  0.73835648  0.74241777  0.71224857    -0.03100
C802        C  0.70643761  0.71507609  0.72863441     0.02300
C803        C  0.66808408  0.65861413  0.62683282     0.09200
N804        N  0.74091465  0.70673324  0.59358030     0.65500
H805        H  0.77582619  0.75445766  0.65292965     0.18400
N806        N  0.69548513  0.71296306  0.77441532     0.76000
H807        H  0.65924016  0.66989543  0.71337085     0.10000
C808        C  0.66260439  0.61718189  0.63865349     0.03700
C809        C  0.63133835  0.59343262  0.61792837    -0.05100
C810        C  0.60604298  0.60924100  0.58374008    -0.23500
C811        C  0.61327689  0.65014243  0.57011355     0.12900
C812        C  0.64366064  0.67454673  0.59211310    -0.12600
N813        N  0.68908792  0.59864810  0.67138041     0.64600
H814        H  0.62770855  0.56184256  0.62815118     0.12400
N815        N  0.58997089  0.66750818  0.53437188     0.61200
H816        H  0.64738273  0.70639586  0.58282485     0.08600
O817        O  0.71024909  0.68375310  0.79677863    -0.40300
O818        O  0.66137685  0.72934748  0.78719304    -0.39400
O819        O  0.74247343  0.73774949  0.56886953    -0.39400
O820        O  0.75584439  0.67307604  0.58007347    -0.37100
O821        O  0.55775207  0.68921034  0.54222142    -0.38000
O822        O  0.60463694  0.66556492  0.49559834    -0.34200
O823        O  0.67275944  0.57792850  0.70218541    -0.35600
O824        O  0.72892064  0.59951318  0.66700191    -0.39900
C825        C  0.34598398  0.40147499  0.63728735    -0.13600
C826        C  0.36313900  0.36523303  0.65424580     0.16800
C827        C  0.40560312  0.35523359  0.64460659     0.03100
C828        C  0.42991602  0.38132749  0.61784749    -0.12100
C829        C  0.41231245  0.41688047  0.59912338    -0.03100
C830        C  0.37015766  0.42747939  0.61021864     0.02300
C831        C  0.33504227  0.33666416  0.67867062     0.09200
N832        N  0.42337950  0.31718437  0.65877000     0.65500
H833        H  0.46197383  0.37224115  0.60943961     0.18400
N834        N  0.35159733  0.46468335  0.59476207     0.76000
H835        H  0.31341167  0.40942239  0.64489701     0.10000
C836        C  0.33769053  0.33135064  0.72449973     0.03700
C837        C  0.30998103  0.30410591  0.74575698    -0.05100
C838        C  0.27854213  0.28120092  0.72260219    -0.23500
C839        C  0.27866162  0.28510457  0.67509959     0.12900
C840        C  0.30571526  0.31357382  0.65472357    -0.12600
N841        N  0.36772658  0.35413913  0.75011947     0.64600
H842        H  0.31238781  0.30146919  0.78134175     0.12400
N843        N  0.25432711  0.25966117  0.64573272     0.61200
H844        H  0.30503326  0.31653584  0.61905326     0.08600
O845        O  0.31619777  0.46385167  0.57531928    -0.40300
O846        O  0.36775336  0.49868954  0.60569579    -0.39400
O847        O  0.40914669  0.28390609  0.64322850    -0.39400
O848        O  0.45745732  0.31706200  0.68062172    -0.37100
O849        O  0.23134936  0.27644801  0.61689545    -0.38000
O850        O  0.26571434  0.22312100  0.63925878    -0.34200
O851        O  0.35783995  0.38905727  0.76488004    -0.35600
O852        O  0.40053028  0.33662849  0.76448838    -0.39900
C853        C  0.65553586  0.36939674  0.40111465    -0.13600
C854        C  0.64183105  0.36778608  0.35707822     0.16800
C855        C  0.60574214  0.39092957  0.34514268     0.03100
C856        C  0.58475196  0.41520365  0.37702609    -0.12100
C857        C  0.59937450  0.41763254  0.42089706    -0.03100
C858        C  0.63509091  0.39382317  0.43276126     0.02300
C859        C  0.66479338  0.34014300  0.32531952     0.09200
N860        N  0.59077103  0.39112790  0.30056408     0.65500
H861        H  0.55737397  0.43292829  0.36714092     0.18400
N862        N  0.64964511  0.39181843  0.47742768     0.76000
H863        H  0.68185874  0.35047601  0.41150496     0.10000
C864        C  0.70934799  0.34090907  0.32187471     0.03700
C865        C  0.73038623  0.31185706  0.29575746    -0.05100
C866        C  0.70892655  0.28066251  0.27174121    -0.23500
C867        C  0.66316858  0.28139549  0.27384736     0.12900
C868        C  0.64247312  0.31028011  0.30122681    -0.12600
N869        N  0.73400586  0.37134009  0.34459955     0.64600
H870        H  0.76469192  0.31359801  0.29441945     0.12400
N871        N  0.63619746  0.25463528  0.24847796     0.61200
H872        H  0.60819036  0.30923045  0.30371918     0.08600
O873        O  0.68775044  0.40069081  0.48611720    -0.40300
O874        O  0.62803437  0.37220499  0.50541066    -0.39400
O875        O  0.55347751  0.37934029  0.29198993    -0.39400
O876        O  0.61279055  0.40779783  0.27073958    -0.37100
O877        O  0.63182946  0.26064461  0.20762988    -0.38000
O878        O  0.60794039  0.23410459  0.26815443    -0.34200
O879        O  0.76416342  0.36068386  0.36938841    -0.35600
O880        O  0.72770932  0.40890492  0.33743510    -0.39900
C881        C  0.40885282  0.67443498  0.38164841    -0.13600
C882        C  0.37855039  0.65341871  0.35610545     0.16800
C883        C  0.37724308  0.61020592  0.35788540     0.03100
C884        C  0.40488635  0.58913984  0.38584908    -0.12100
C885        C  0.43367401  0.61016596  0.41337074    -0.03100
C886        C  0.43584328  0.65344102  0.41051304     0.02300
C887        C  0.34916717  0.67666062  0.32698294     0.09200
N888        N  0.34646715  0.58730386  0.33323942     0.65500
H889        H  0.40232100  0.55604566  0.38731322     0.18400
N890        N  0.46468476  0.67674985  0.43707469     0.76000
H891        H  0.41130893  0.70750235  0.37958980     0.10000
C892        C  0.32500353  0.70987020  0.34271494     0.03700
C893        C  0.29707963  0.73017127  0.31433800    -0.05100
C894        C  0.28979234  0.71671765  0.27033120    -0.23500
C895        C  0.31814563  0.68597362  0.25380810     0.12900
C896        C  0.34656300  0.66634584  0.28220840    -0.12600
N897        N  0.32748438  0.72283316  0.38787606     0.64600
H898        H  0.28134781  0.75666691  0.32787243     0.12400
N899        N  0.31964985  0.67443197  0.20819234     0.61200
H900        H  0.36715672  0.64279841  0.26886075     0.08600
O901        O  0.45276409  0.69025516  0.47418893    -0.40300
O902        O  0.49893016  0.68965250  0.42046094    -0.39400
O903        O  0.35841823  0.56148569  0.30468133    -0.39400
O904        O  0.30785669  0.58881104  0.34417343    -0.37100
O905        O  0.30658701  0.63922783  0.19720190    -0.38000
O906        O  0.34686805  0.69164566  0.18383935    -0.34200
O907        O  0.33812237  0.75921233  0.39710861    -0.35600
O908        O  0.31397971  0.69964073  0.41807903    -0.39900
C909        C  0.60887535  0.61396651  0.35110700    -0.13600
C910        C  0.65271781  0.61741707  0.35827465     0.16800
C911        C  0.67197407  0.59211672  0.38988640     0.03100
C912        C  0.64687816  0.56685653  0.41647543    -0.12100
C913        C  0.60240715  0.56561872  0.41195528    -0.03100
C914        C  0.58359300  0.58760579  0.37675748     0.02300
C915        C  0.67704857  0.65030658  0.33572238     0.09200
N916        N  0.71697002  0.59242033  0.39595706     0.65500
H917        H  0.66237789  0.54926991  0.44205625     0.18400
N918        N  0.53914977  0.58441884  0.36706341     0.76000
H919        H  0.59401266  0.63276533  0.32613997     0.10000
C920        C  0.67790744  0.65348793  0.28962807     0.03700
C921        C  0.69861331  0.68655675  0.26987452    -0.05100
C922        C  0.71983457  0.71759925  0.29464677    -0.23500
C923        C  0.71980232  0.71313828  0.34182857     0.12900
C924        C  0.69755528  0.68033814  0.36116825    -0.12600
N925        N  0.65875539  0.62274839  0.26224763     0.64600
H926        H  0.69800744  0.68810131  0.23412827     0.12400
N927        N  0.74316201  0.73926107  0.37131285     0.61200
H928        H  0.69685832  0.67789645  0.39686589     0.08600
O929        O  0.52277973  0.54960652  0.36011339    -0.40300
O930        O  0.51857939  0.61604685  0.35661796    -0.39400
O931        O  0.73255624  0.60526563  0.43185487    -0.39400
O932        O  0.74040733  0.57400857  0.36853394    -0.37100
O933        O  0.78297070  0.73587930  0.37307306    -0.38000
O934        O  0.72428700  0.75442269  0.40434896    -0.34200
O935        O  0.62841735  0.63202129  0.23706695    -0.35600
O936        O  0.67584313  0.58796385  0.25874498    -0.39900
C937        C  0.65659897  0.37635957  0.63791709    -0.13600
C938        C  0.63845903  0.33929927  0.65133722     0.16800
C939        C  0.59673856  0.32948248  0.63834955     0.03100
C940        C  0.57390850  0.35669569  0.61155621    -0.12100
C941        C  0.59179416  0.39434838  0.59884541    -0.03100
C942        C  0.63364403  0.40414627  0.61241258     0.02300
C943        C  0.66454022  0.31119571  0.67804209     0.09200
N944        N  0.57718437  0.29225714  0.65258567     0.65500
H945        H  0.54191440  0.34882349  0.60145703     0.18400
N946        N  0.65399635  0.44145967  0.59917524     0.76000
H947        H  0.68883408  0.38386432  0.64758824     0.10000
C948        C  0.69281164  0.28400779  0.65770968     0.03700
C949        C  0.72129985  0.26156321  0.68328266    -0.05100
C950        C  0.72420352  0.26670761  0.72974599    -0.23500
C951        C  0.69252162  0.29205576  0.75008440     0.12900
C952        C  0.66392831  0.31426636  0.72403980    -0.12600
N953        N  0.69325208  0.27919592  0.61075073     0.64600
H954        H  0.74043778  0.23952156  0.66576387     0.12400
N955        N  0.68687655  0.29385930  0.79702691     0.61200
H956        H  0.64125536  0.33444355  0.73993671     0.08600
O957        O  0.68687272  0.43986325  0.57539701    -0.40300
O958        O  0.64531783  0.47443349  0.61913441    -0.39400
O959        O  0.55752068  0.29124738  0.68890433    -0.39400
O960        O  0.57671016  0.26132114  0.62742680    -0.37100
O961        O  0.70733402  0.31975960  0.81965579    -0.38000
O962        O  0.65393787  0.27800701  0.81348173    -0.34200
O963        O  0.72328446  0.29426698  0.58843431    -0.35600
O964        O  0.66688381  0.25547838  0.59235223    -0.39900
C965        C  0.32413789  0.66241434  0.71858775    -0.13600
C966        C  0.32587676  0.66816775  0.67285188     0.16800
C967        C  0.29698275  0.69592573  0.65384313     0.03100
C968        C  0.26946289  0.71880108  0.68086259    -0.12100
C969        C  0.27206541  0.71830046  0.72762639    -0.03100
C970        C  0.29736008  0.68599750  0.74588290     0.02300
C971        C  0.35513343  0.64236698  0.64520716     0.09200
N972        N  0.29617526  0.70262706  0.60708842     0.65500
H973        H  0.24695346  0.73786115  0.66401861     0.18400
N974        N  0.29642831  0.67576149  0.79178655     0.76000
H975        H  0.34349813  0.63882385  0.73344868     0.10000
C976        C  0.39903753  0.63881657  0.65443756     0.03700
C977        C  0.42527124  0.61461491  0.62708346    -0.05100
C978        C  0.40885702  0.59405353  0.58991575    -0.23500
C979        C  0.36475995  0.59755126  0.58097974     0.12900
C980        C  0.33856922  0.62042328  0.60918311    -0.12600
N981        N  0.41777882  0.66064003  0.69059982     0.64600
H982        H  0.45880935  0.61251123  0.63454487     0.12400
N983        N  0.34617727  0.58004773  0.54201276     0.61200
H984        H  0.30493809  0.62193720  0.60202170     0.08600
O985        O  0.33053678  0.67769004  0.81351784    -0.40300
O986        O  0.26790130  0.65149020  0.80499912    -0.39400
O987        O  0.26155651  0.70040666  0.58626010    -0.39400
O988        O  0.32917610  0.71482436  0.58738393    -0.37100
O989        O  0.31502085  0.55583956  0.54536579    -0.38000
O990        O  0.35567049  0.59444093  0.50462119    -0.34200
O991        O  0.43737880  0.64137328  0.72027565    -0.35600
O992        O  0.41924021  0.69928430  0.69006614    -0.39900
C993        C  0.31135033  0.30518030  0.35050751    -0.13600
C994        C  0.34005251  0.33239446  0.33097494     0.16800
C995        C  0.33794116  0.33881730  0.28519130     0.03100
C996        C  0.30992452  0.31523375  0.25969411    -0.12100
C997        C  0.28435673  0.28363240  0.27785311    -0.03100
C998        C  0.28185707  0.28257719  0.32525607     0.02300
C999        C  0.37059547  0.35493119  0.35951096     0.09200
N1000       N  0.36554446  0.36748151  0.26356749     0.65500
H1001       H  0.31056819  0.31985199  0.22451408     0.18400
N1002       N  0.24823178  0.26258803  0.34910130     0.76000
H1003       H  0.31059650  0.30300533  0.38622647     0.10000
C1004       C  0.36913081  0.39790180  0.36440744     0.03700
C1005       C  0.39882674  0.41767650  0.39163142    -0.05100
C1006       C  0.42963460  0.39550631  0.41522138    -0.23500
C1007       C  0.43184762  0.35261007  0.40903248     0.12900
C1008       C  0.40207732  0.33278863  0.38173689    -0.12600
N1009       N  0.33635864  0.42160595  0.34401571     0.64600
H1010       H  0.39613706  0.45053600  0.39614420     0.12400
N1011       N  0.46445988  0.32884960  0.42940112     0.61200
H1012       H  0.40389356  0.29985831  0.37726026     0.08600
O1013       O  0.21034423  0.27318165  0.34247656    -0.40300
O1014       O  0.25664966  0.24375958  0.38436477    -0.39400
O1015       O  0.40522019  0.36498753  0.26846903    -0.39400
O1016       O  0.35075021  0.39193845  0.23534191    -0.37100
O1017       O  0.50295532  0.33641473  0.42104679    -0.38000
O1018       O  0.45485457  0.29741181  0.45144990    -0.34200
O1019       O  0.29787501  0.41283531  0.35089801    -0.35600
O1020       O  0.34560212  0.45438798  0.32414007    -0.39900
loop_ 
_geom_bond_atom_site_label_1 
_geom_bond_atom_site_label_2 
_geom_bond_distance 
_geom_bond_site_symmetry_2 
_ccdc_geom_bond_type 
O1            C9   1.276       .  A
O1          Co21   1.913       .  S
O2           C10   1.260       .  A
O2          Co22   1.992       .  S
O3           C11   1.300       .  A
O3          Co23   2.079       .  S
O4           C12   1.266       .  A
O4          Co24   2.023       .  S
O5           C11   1.271       .  A
O5          Co22   1.896       .  S
O6           C12   1.259       .  A
O6          Co21   1.997       .  S
O7           C10   1.266       .  A
O7          Co24   1.999       .  S
O8            C9   1.294       .  A
O8          Co23   2.057       .  S
C9         C1006   1.489       .  S
C10         C913   1.490       .  S
C11         C885   1.491       .  S
C12         C857   1.497       .  S
O13          C26   1.275       .  A
O13         Co21   2.028       .  S
O14          C27   1.256       .  A
O14         Co22   1.993       .  S
O15          C28   1.257       .  A
O15         Co23   2.016       .  S
O16          C29   1.262       .  A
O16         Co24   1.969       .  S
O17          C29   1.271       .  A
O17         Co22   2.025       .  S
O18          C28   1.242       .  A
O18         Co21   1.957       .  S
O19          C26   1.261       .  A
O19         Co24   1.964       .  S
O20          C27   1.253       .  A
O20         Co23   1.984       .  S
Co21         O25   1.942       .  S
Co22         O25   1.948       .  S
Co23         O25   2.241       .  S
Co24         O25   2.079       .  S
C26         C941   1.479       .  S
C27         C978   1.497       .  S
C28         C829   1.490       .  S
C29         C810   1.494       .  S
O30          C38   1.276       .  A
O30         Co50   2.009   1_556  S
O31          C39   1.264       .  A
O31         Co51   2.022   1_456  S
O32          C40   1.267       .  A
O32         Co52   1.902       .  S
O33          C41   1.259       .  A
O33         Co53   1.952       .  S
O34          C40   1.299       .  A
O34         Co51   2.112   1_556  S
O35          C41   1.278       .  A
O35         Co50   2.052   1_456  S
O36          C39   1.255       .  A
O36         Co53   1.967       .  S
O37          C38   1.270       .  A
O37         Co52   1.979       .  S
C38         C782   1.479       .  S
C39         C661   1.492       .  S
C40         C689   1.502       .  S
C41         C717   1.493       .  S
O42          C55   1.258       .  A
O42         Co50   1.957   1_455  S
O43          C56   1.266       .  A
O43         Co51   1.895       .  S
O44          C57   1.267       .  A
O44         Co52   2.021   1_554  S
O45          C58   1.279       .  A
O45         Co53   2.020   1_554  S
O46          C58   1.267       .  A
O46         Co51   1.970   1_455  S
O47          C57   1.258       .  A
O47         Co50   1.979       .  S
O48          C55   1.275       .  A
O48         Co53   2.041   1_554  S
O49          C56   1.298       .  A
O49         Co52   2.115   1_554  S
Co50         O54   2.030       .  S
Co51         O54   2.019       .  S
Co52         O54   2.013   1_556  S
Co53         O54   2.025   1_456  S
C55         C586   1.489       .  S
C56         C633   1.494       .  S
C57         C745   1.487       .  S
C58         C605   1.488       .  S
C59         C521   1.568       .  S
C59         C558   1.569       .  S
C59         C773   1.570       .  S
C59         C950   1.572       .  S
O60          C68   1.295       .  A
O60         Co80   2.107       .  S
O61          C69   1.271       .  A
O61         Co81   2.019   1_554  S
O62          C70   1.269       .  A
O62         Co82   1.968   1_565  S
O63          C71   1.256       .  A
O63         Co83   1.968   1_545  S
O64          C70   1.283       .  A
O64         Co81   2.036       .  S
O65          C71   1.267       .  A
O65         Co80   2.011   1_554  S
O66          C69   1.260       .  A
O66         Co83   1.962       .  S
O67          C68   1.266       .  A
O67         Co82   1.906       .  S
C68         C446   1.492       .  S
C69         C390   1.485       .  S
C70         C493   1.497       .  S
C71         C353   1.486       .  S
O72          C85   1.263       .  A
O72         Co80   1.972   1_554  S
O73          C86   1.249       .  A
O73         Co81   1.957       .  S
O74          C87   1.299       .  A
O74         Co82   2.113       .  S
O75          C88   1.275       .  A
O75         Co83   2.037       .  S
O76          C88   1.257       .  A
O76         Co81   1.948   1_554  S
O77          C87   1.265       .  A
O77         Co80   1.879       .  S
O78          C85   1.276       .  A
O78         Co83   2.035   1_545  S
O79          C86   1.263       .  A
O79         Co82   2.028   1_565  S
Co80         O84   1.996   1_546  S
Co81         O84   2.011   1_556  S
Co82         O84   2.020   1_546  S
Co83         O84   2.039       .  S
C85         C334   1.486       .  S
C86         C418   1.487       .  S
C87         C549   1.478       .  S
C88         C465   1.481       .  S
C89         C306   1.600       .  S
C89         C502   1.571       .  S
C89         C670   1.581       .  S
C89         C969   1.584       .  S
O90          C98   1.297       .  A
O90        Co110   2.110   1_655  S
O91          C99   1.277       .  A
O91        Co111   2.051       .  S
O92         C100   1.267       .  A
O92        Co112   1.974   1_565  S
O93         C101   1.253       .  A
O93        Co113   1.965       .  S
O94         C100   1.276       .  A
O94        Co111   2.021   1_655  S
O95         C101   1.263       .  A
O95        Co110   2.023       .  S
O96          C99   1.258       .  A
O96        Co113   1.959   1_565  S
O97          C98   1.263       .  A
O97        Co112   1.886       .  S
C98         C530   1.488       .  S
C99         C297   1.503       .  S
C100        C185   1.485       .  S
C101        C138   1.487       .  S
O102        C115   1.269       .  A
O102       Co110   1.970       .  S
O103        C116   1.255       .  A
O103       Co111   1.974   1_655  S
O104        C117   1.300       .  A
O104       Co112   2.115       .  S
O105        C118   1.275       .  A
O105       Co113   2.041   1_565  S
O106        C118   1.255       .  A
O106       Co111   1.951       .  S
O107        C117   1.265       .  A
O107       Co110   1.903   1_655  S
O108        C115   1.281       .  A
O108       Co113   2.036       .  S
O109        C116   1.260       .  A
O109       Co112   2.007   1_565  S
Co110       O114   2.031   1_545  S
Co111       O114   2.039       .  S
Co112       O114   2.021   1_645  S
Co113       O114   2.030   1_545  S
C115        C166   1.485       .  S
C116        C250   1.480       .  S
C117        C269   1.504       .  S
C118        C222   1.492       .  S
C119        C241   1.581       .  S
C119        C474   1.575       .  S
C119        C642   1.591       .  S
C119        C922   1.563       .  S
C120        C157   1.581       .  S
C120        C362   1.567       .  S
C120        C577   1.586       .  S
C120        C997   1.573       .  S
C121        C278   1.586       .  S
C121        C325   1.568       .  S
C121        C754   1.590       .  S
C121        C866   1.581       .  S
C122        C213   1.585       .  S
C122        C381   1.567       .  S
C122        C614   1.571       .  S
C122        C894   1.576       .  S
C123        C129   1.568       .  S
C123        C437   1.589       .  S
C123        C726   1.584       .  S
C123        C838   1.578       .  S
C124        C194   1.583       .  S
C124        C409   1.576       .  S
C124        C698   1.581       .  S
C124        C801   1.574       .  S
C125        C126   1.395       .  A
C125        C130   1.402       .  A
C125        H135   1.084       .  S
C126        C131   1.489       .  S
C126        C127   1.411       .  A
C127        C128   1.403       .  A
C127        N132   1.436       .  S
C128        C129   1.417       .  A
C128        H133   1.075       .  S
C129        C130   1.436       .  A
C130        N134   1.433       .  S
C131        C136   1.411       .  A
C131        C140   1.405       .  A
N132        O147   1.262       .  A
N132        O148   1.263       .  A
N134        O145   1.261       .  A
N134        O146   1.262       .  A
C136        C137   1.401       .  A
C136        N141   1.436       .  S
C137        C138   1.407       .  A
C137        H142   1.084       .  S
C138        C139   1.414       .  A
C139        C140   1.406       .  A
C139        N143   1.431       .  S
C140        H144   1.084       .  S
N141        O151   1.262       .  A
N141        O152   1.263       .  A
N143        O149   1.262       .  A
N143        O150   1.262       .  A
C153        C154   1.400       .  A
C153        C158   1.404       .  A
C153        H163   1.083       .  S
C154        C159   1.504       .  S
C154        C155   1.412       .  A
C155        C156   1.406       .  A
C155        N160   1.433       .  S
C156        C157   1.419       .  A
C156        H161   1.078       .  S
C157        C158   1.434       .  A
C158        N162   1.430       .  S
C159        C164   1.420       .  A
C159        C168   1.405       .  A
N160        O175   1.262       .  A
N160        O176   1.262       .  A
N162        O173   1.262       .  A
N162        O174   1.262       .  A
C164        C165   1.409       .  A
C164        N169   1.432       .  S
C165        C166   1.403       .  A
C165        H170   1.084       .  S
C166        C167   1.411       .  A
C167        C168   1.400       .  A
C167        N171   1.428       .  S
C168        H172   1.083       .  S
N169        O179   1.262       .  A
N169        O180   1.262       .  A
N171        O177   1.261       .  A
N171        O178   1.262       .  A
C181        C182   1.399       .  A
C181        C186   1.399       .  A
C181        H191   1.084       .  S
C182        C187   1.483       .  S
C182        C183   1.411       .  A
C183        C184   1.404       .  A
C183        N188   1.432       .  S
C184        C185   1.408       .  A
C184        H189   1.084       .  S
C185        C186   1.413       .  A
C186        N190   1.427       .  S
C187        C192   1.402       .  A
C187        C196   1.395       .  A
N188        O203   1.262       .  A
N188        O204   1.262       .  A
N190        O201   1.262       .  A
N190        O202   1.261   1_655  A
C192        C193   1.402       .  A
C192        N197   1.435       .  S
C193        C194   1.419       .  A
C193        H198   1.052       .  S
C194        C195   1.440       .  A
C195        C196   1.406       .  A
C195        N199   1.432       .  S
C196        H200   1.082       .  S
N197        O207   1.263       .  A
N197        O208   1.262       .  A
N199        O205   1.262       .  A
N199        O206   1.262       .  A
C209        C210   1.395       .  A
C209        C214   1.405       .  A
C209        H219   1.084       .  S
C210        C215   1.487       .  S
C210        C211   1.404       .  A
C211        C212   1.402       .  A
C211        N216   1.431       .  S
C212        C213   1.418       .  A
C212        H217   1.077       .  S
C213        C214   1.441       .  A
C214        N218   1.434       .  S
C215        C220   1.412       .  A
C215        C224   1.400       .  A
N216        O231   1.262       .  A
N216        O232   1.262       .  A
N218        O229   1.263       .  A
N218        O230   1.261       .  A
C220        C221   1.407       .  A
C220        N225   1.433       .  S
C221        C222   1.407       .  A
C221        H226   1.083       .  S
C222        C223   1.418       .  A
C223        C224   1.400       .  A
C223        N227   1.430       .  S
C224        H228   1.084       .  S
N225        O235   1.262       .  A
N225        O236   1.262       .  A
N227        O233   1.262       .  A
N227        O234   1.262       .  A
C237        C238   1.394       .  A
C237        C242   1.402       .  A
C237        H247   1.084       .  S
C238        C243   1.488       .  S
C238        C239   1.407       .  A
C239        C240   1.404       .  A
C239        N244   1.438       .  S
C240        C241   1.421       .  A
C240        H245   1.073       .  S
C241        C242   1.439       .  A
C242        N246   1.431       .  S
C243        C248   1.414       .  A
C243        C252   1.403       .  A
N244        O259   1.263       .  A
N244        O260   1.263       .  A
N246        O257   1.261       .  A
N246        O258   1.262       .  A
C248        C249   1.402       .  A
C248        N253   1.434       .  S
C249        C250   1.404       .  A
C249        H254   1.084       .  S
C250        C251   1.413       .  A
C251        C252   1.401       .  A
C251        N255   1.430       .  S
C252        H256   1.084       .  S
N253        O263   1.262       .  A
N253        O264   1.263       .  A
N255        O261   1.262       .  A
N255        O262   1.262       .  A
C265        C266   1.403       .  A
C265        C270   1.406       .  A
C265        H275   1.084       .  S
C266        C271   1.502       .  S
C266        C267   1.413       .  A
C267        C268   1.411       .  A
C267        N272   1.429       .  S
C268        C269   1.409       .  A
C268        H273   1.084       .  S
C269        C270   1.422       .  A
C270        N274   1.432       .  S
C271        C276   1.409       .  A
C271        C280   1.400       .  A
N272        O287   1.262       .  A
N272        O288   1.262       .  A
N274        O285   1.262       .  A
N274        O286   1.262       .  A
C276        C277   1.406       .  A
C276        N281   1.431       .  S
C277        C278   1.420       .  A
C277        H282   1.078       .  S
C278        C279   1.436       .  A
C279        C280   1.408       .  A
C279        N283   1.432       .  S
C280        H284   1.083       .  S
N281        O291   1.262       .  A
N281        O292   1.262       .  A
N283        O289   1.262       .  A
N283        O290   1.262       .  A
C293        C294   1.405       .  A
C293        C298   1.411       .  A
C293        H303   1.084       .  S
C294        C299   1.493       .  S
C294        C295   1.406       .  A
C295        C296   1.403       .  A
C295        N300   1.429       .  S
C296        C297   1.412       .  A
C296        H301   1.084       .  S
C297        C298   1.417       .  A
C298        N302   1.429       .  S
C299        C304   1.401       .  A
C299        C308   1.397       .  A
N300        O315   1.262       .  A
N300        O316   1.262       .  A
N302        O313   1.262       .  A
N302        O314   1.261       .  A
C304        C305   1.406       .  A
C304        N309   1.430       .  S
C305        C306   1.427       .  A
C305        H310   1.078       .  S
C306        C307   1.436       .  A
C307        C308   1.410       .  A
C307        N311   1.429       .  S
C308        H312   1.084       .  S
N309        O319   1.262       .  A
N309        O320   1.262       .  A
N311        O317   1.263       .  A
N311        O318   1.262       .  A
C321        C322   1.395       .  A
C321        C326   1.402       .  A
C321        H331   1.084       .  S
C322        C327   1.489       .  S
C322        C323   1.409       .  A
C323        C324   1.407       .  A
C323        N328   1.434       .  S
C324        C325   1.418       .  A
C324        H329   1.077       .  S
C325        C326   1.436       .  A
C326        N330   1.434       .  S
C327        C332   1.412       .  A
C327        C336   1.400       .  A
N328        O343   1.262       .  A
N328        O344   1.262       .  A
N330        O341   1.262       .  A
N330        O342   1.261       .  A
C332        C333   1.407       .  A
C332        N337   1.431       .  S
C333        C334   1.406       .  A
C333        H338   1.084       .  S
C334        C335   1.415       .  A
C335        C336   1.402       .  A
C335        N339   1.430       .  S
C336        H340   1.084       .  S
N337        O347   1.262       .  A
N337        O348   1.262       .  A
N339        O345   1.262       .  A
N339        O346   1.262       .  A
C349        C350   1.402       .  A
C349        C354   1.398       .  A
C349        H359   1.083       .  S
C350        C355   1.490       .  S
C350        C351   1.413       .  A
C351        C352   1.401       .  A
C351        N356   1.432       .  S
C352        C353   1.403       .  A
C352        H357   1.083       .  S
C353        C354   1.417       .  A
C354        N358   1.429       .  S
C355        C360   1.406       .  A
C355        C364   1.399       .  A
N356        O371   1.262       .  A
N356        O372   1.262       .  A
N358        O369   1.262       .  A
N358        O370   1.262       .  A
C360        C361   1.398       .  A
C360        N365   1.434       .  S
C361        C362   1.421       .  A
C361        H366   1.083       .  S
C362        C363   1.437       .  A
C363        C364   1.402       .  A
C363        N367   1.431       .  S
C364        H368   1.084       .  S
N365        O375   1.262       .  A
N365        O376   1.262       .  A
N367        O373   1.261       .  A
N367        O374   1.263       .  A
C377        C378   1.393       .  A
C377        C382   1.405       .  A
C377        H387   1.084       .  S
C378        C383   1.473       .  S
C378        C379   1.399       .  A
C379        C380   1.394       .  A
C379        N384   1.431       .  S
C380        C381   1.421       .  A
C380        H385   1.083       .  S
C381        C382   1.440       .  A
C382        N386   1.429       .  S
C383        C388   1.406       .  A
C383        C392   1.395       .  A
N384        O399   1.262       .  A
N384        O400   1.262       .  A
N386        O397   1.260       .  A
N386        O398   1.263       .  A
C388        C389   1.402       .  A
C388        N393   1.429       .  S
C389        C390   1.408       .  A
C389        H394   1.084       .  S
C390        C391   1.418       .  A
C391        C392   1.399       .  A
C391        N395   1.434       .  S
C392        H396   1.084       .  S
N393        O403   1.262       .  A
N393        O404   1.262       .  A
N395        O401   1.262       .  A
N395        O402   1.262       .  A
C405        C406   1.394       .  A
C405        C410   1.405       .  A
C405        H415   1.084       .  S
C406        C411   1.487       .  S
C406        C407   1.403       .  A
C407        C408   1.401       .  A
C407        N412   1.430       .  S
C408        C409   1.416       .  A
C408        H413   1.078       .  S
C409        C410   1.446       .  A
C410        N414   1.437       .  S
C411        C416   1.414       .  A
C411        C420   1.398       .  A
N412        O427   1.262       .  A
N412        O428   1.262       .  A
N414        O425   1.262       .  A
N414        O426   1.261       .  A
C416        C417   1.410       .  A
C416        N421   1.431       .  S
C417        C418   1.405       .  A
C417        H422   1.083       .  S
C418        C419   1.418       .  A
C419        C420   1.395       .  A
C419        N423   1.431       .  S
C420        H424   1.084       .  S
N421        O431   1.262       .  A
N421        O432   1.262       .  A
N423        O429   1.262       .  A
N423        O430   1.262       .  A
C433        C434   1.399       .  A
C433        C438   1.403       .  A
C433        H443   1.084       .  S
C434        C439   1.504       .  S
C434        C435   1.410       .  A
C435        C436   1.407       .  A
C435        N440   1.431       .  S
C436        C437   1.421       .  A
C436        H441   1.078       .  S
C437        C438   1.434       .  A
C438        N442   1.429       .  S
C439        C444   1.417       .  A
C439        C448   1.406       .  A
N440        O455   1.262       .  A
N440        O456   1.262       .  A
N442        O453   1.262       .  A
N442        O454   1.262       .  A
C444        C445   1.405       .  A
C444        N449   1.434       .  S
C445        C446   1.402       .  A
C445        H450   1.080       .  S
C446        C447   1.414       .  A
C447        C448   1.406       .  A
C447        N451   1.430       .  S
C448        H452   1.082       .  S
N449        O459   1.262       .  A
N449        O460   1.262       .  A
N451        O457   1.261       .  A
N451        O458   1.262       .  A
C461        C462   1.405       .  A
C461        C466   1.405       .  A
C461        H471   1.084       .  S
C462        C467   1.478       .  S
C462        C463   1.405       .  A
C463        C464   1.396       .  A
C463        N468   1.431       .  S
C464        C465   1.407       .  A
C464        H469   1.083       .  S
C465        C466   1.409       .  A
C466        N470   1.428       .  S
C467        C472   1.402       .  A
C467        C476   1.393       .  A
N468        O483   1.262       .  A
N468        O484   1.262       .  A
N470        O481   1.262       .  A
N470        O482   1.262       .  A
C472        C473   1.398       .  A
C472        N477   1.432       .  S
C473        C474   1.421       .  A
C473        H478   1.084       .  S
C474        C475   1.442       .  A
C475        C476   1.403       .  A
C475        N479   1.432       .  S
C476        H480   1.084       .  S
N477        O487   1.262       .  A
N477        O488   1.262       .  A
N479        O485   1.261       .  A
N479        O486   1.263       .  A
C489        C490   1.400       .  A
C489        C494   1.405       .  A
C489        H499   1.083       .  S
C490        C495   1.495       .  S
C490        C491   1.412       .  A
C491        C492   1.404       .  A
C491        N496   1.431       .  S
C492        C493   1.408       .  A
C492        H497   1.084       .  S
C493        C494   1.421       .  A
C494        N498   1.432       .  S
C495        C500   1.408       .  A
C495        C504   1.397       .  A
N496        O511   1.262       .  A
N496        O512   1.262       .  A
N498        O509   1.262       .  A
N498        O510   1.262       .  A
C500        C501   1.404       .  A
C500        N505   1.432       .  S
C501        C502   1.420       .  A
C501        H506   1.083       .  S
C502        C503   1.439       .  A
C503        C504   1.405       .  A
C503        N507   1.434       .  S
C504        H508   1.084       .  S
N505        O515   1.262       .  A
N505        O516   1.262       .  A
N507        O513   1.261       .  A
N507        O514   1.263       .  A
C517        C518   1.397       .  A
C517        C522   1.399       .  A
C517        H527   1.084       .  S
C518        C523   1.482       .  S
C518        C519   1.406       .  A
C519        C520   1.400       .  A
C519        N524   1.436       .  S
C520        C521   1.420       .  A
C520        H525   1.078       .  S
C521        C522   1.431       .  A
C522        N526   1.432       .  S
C523        C528   1.411       .  A
C523        C532   1.402       .  A
N524        O539   1.262       .  A
N524        O540   1.263       .  A
N526        O537   1.262       .  A
N526        O538   1.262       .  A
C528        C529   1.399       .  A
C528        N533   1.437       .  S
C529        C530   1.409       .  A
C529        H534   1.083       .  S
C530        C531   1.415       .  A
C531        C532   1.402       .  A
C531        N535   1.430       .  S
C532        H536   1.084       .  S
N533        O543   1.263       .  A
N533        O544   1.263       .  A
N535        O541   1.262       .  A
N535        O542   1.262       .  A
C545        C546   1.402       .  A
C545        C550   1.404       .  A
C545        H555   1.084       .  S
C546        C551   1.475       .  S
C546        C547   1.407       .  A
C547        C548   1.395       .  A
C547        N552   1.431       .  S
C548        C549   1.404       .  A
C548        H553   1.083       .  S
C549        C550   1.414       .  A
C550        N554   1.433       .  S
C551        C556   1.402       .  A
C551        C560   1.393       .  A
N552        O567   1.261       .  A
N552        O568   1.262       .  A
N554        O565   1.263       .  A
N554        O566   1.262       .  A
C556        C557   1.399       .  A
C556        N561   1.430       .  S
C557        C558   1.420       .  A
C557        H562   1.078       .  S
C558        C559   1.433       .  A
C559        C560   1.398       .  A
C559        N563   1.432       .  S
C560        H564   1.084       .  S
N561        O571   1.262       .  A
N561        O572   1.262       .  A
N563        O569   1.261       .  A
N563        O570   1.263       .  A
C573        C574   1.397       .  A
C573        C578   1.407       .  A
C573        H583   1.084       .  S
C574        C579   1.492       .  S
C574        C575   1.403       .  A
C575        C576   1.400       .  A
C575        N580   1.429       .  S
C576        C577   1.417       .  A
C576        H581   1.075       .  S
C577        C578   1.443       .  A
C578        N582   1.433       .  S
C579        C584   1.413       .  A
C579        C588   1.401       .  A
N580        O595   1.262       .  A
N580        O596   1.262       .  A
N582        O593   1.262       .  A
N582        O594   1.263       .  A
C584        C585   1.408       .  A
C584        N589   1.430       .  S
C585        C586   1.405       .  A
C585        H590   1.084       .  S
C586        C587   1.418       .  A
C587        C588   1.401       .  A
C587        N591   1.431       .  S
C588        H592   1.084       .  S
N589        O599   1.262       .  A
N589        O600   1.262       .  A
N591        O597   1.262       .  A
N591        O598   1.262       .  A
C601        C602   1.400       .  A
C601        C606   1.403       .  A
C601        H611   1.084       .  S
C602        C607   1.483       .  S
C602        C603   1.407       .  A
C603        C604   1.399       .  A
C603        N608   1.429       .  S
C604        C605   1.407       .  A
C604        H609   1.084       .  S
C605        C606   1.419       .  A
C606        N610   1.431       .  S
C607        C612   1.405       .  A
C607        C616   1.396       .  A
N608        O623   1.262       .  A
N608        O624   1.262       .  A
N610        O621   1.262       .  A
N610        O622   1.262   1_455  A
C612        C613   1.400       .  A
C612        N617   1.434       .  S
C613        C614   1.416       .  A
C613        H618   1.077       .  S
C614        C615   1.438       .  A
C615        C616   1.406       .  A
C615        N619   1.436       .  S
C616        H620   1.084       .  S
N617        O627   1.262       .  A
N617        O628   1.262       .  A
N619        O625   1.261       .  A
N619        O626   1.263       .  A
C629        C630   1.401       .  A
C629        C634   1.408       .  A
C629        H639   1.084       .  S
C630        C635   1.481       .  S
C630        C631   1.403       .  A
C631        C632   1.400       .  A
C631        N636   1.429       .  S
C632        C633   1.409       .  A
C632        H637   1.083       .  S
C633        C634   1.420       .  A
C634        N638   1.433       .  S
C635        C640   1.399       .  A
C635        C644   1.393       .  A
N636        O651   1.262       .  A
N636        O652   1.261       .  A
N638        O649   1.262       .  A
N638        O650   1.262       .  A
C640        C641   1.399       .  A
C640        N645   1.429       .  S
C641        C642   1.423       .  A
C641        H646   1.077       .  S
C642        C643   1.439       .  A
C643        C644   1.405       .  A
C643        N647   1.431       .  S
C644        H648   1.084       .  S
N645        O655   1.262       .  A
N645        O656   1.262       .  A
N647        O653   1.262       .  A
N647        O654   1.262       .  A
C657        C658   1.407       .  A
C657        C662   1.407       .  A
C657        H667   1.084       .  S
C658        C663   1.492       .  S
C658        C659   1.412       .  A
C659        C660   1.401       .  A
C659        N664   1.435       .  S
C660        C661   1.409       .  A
C660        H665   1.084       .  S
C661        C662   1.412       .  A
C662        N666   1.429       .  S
C663        C668   1.408       .  A
C663        C672   1.395       .  A
N664        O679   1.262       .  A
N664        O680   1.262       .  A
N666        O677   1.262       .  A
N666        O678   1.262       .  A
C668        C669   1.404       .  A
C668        N673   1.435       .  S
C669        C670   1.421       .  A
C669        H674   1.084       .  S
C670        C671   1.442       .  A
C671        C672   1.405       .  A
C671        N675   1.433       .  S
C672        H676   1.084       .  S
N673        O683   1.262       .  A
N673        O684   1.262       .  A
N675        O681   1.263       .  A
N675        O682   1.261       .  A
C685        C686   1.401       .  A
C685        C690   1.405       .  A
C685        H695   1.084       .  S
C686        C691   1.495       .  S
C686        C687   1.413       .  A
C687        C688   1.409       .  A
C687        N692   1.433       .  S
C688        C689   1.409       .  A
C688        H693   1.084       .  S
C689        C690   1.419       .  A
C690        N694   1.429       .  S
C691        C696   1.404       .  A
C691        C700   1.399       .  A
N692        O707   1.262       .  A
N692        O708   1.262       .  A
N694        O705   1.262       .  A
N694        O706   1.262       .  A
C696        C697   1.403       .  A
C696        N701   1.433       .  S
C697        C698   1.424       .  A
C697        H702   1.083       .  S
C698        C699   1.438       .  A
C699        C700   1.412       .  A
C699        N703   1.429       .  S
C700        H704   1.084       .  S
N701        O711   1.262       .  A
N701        O712   1.262       .  A
N703        O709   1.261       .  A
N703        O710   1.262       .  A
C713        C714   1.408       .  A
C713        C718   1.407       .  A
C713        H723   1.084       .  S
C714        C719   1.501       .  S
C714        C715   1.417       .  A
C715        C716   1.404       .  A
C715        N720   1.436       .  S
C716        C717   1.406       .  A
C716        H721   1.083       .  S
C717        C718   1.412       .  A
C718        N722   1.428       .  S
C719        C724   1.414       .  A
C719        C728   1.400       .  A
N720        O735   1.261       .  A
N720        O736   1.263       .  A
N722        O733   1.262   1_556  A
N722        O734   1.262       .  A
C724        C725   1.407       .  A
C724        N729   1.437       .  S
C725        C726   1.420       .  A
C725        H730   1.075       .  S
C726        C727   1.434       .  A
C727        C728   1.405       .  A
C727        N731   1.432       .  S
C728        H732   1.084       .  S
N729        O739   1.262       .  A
N729        O740   1.263       .  A
N731        O737   1.262       .  A
N731        O738   1.262       .  A
C741        C742   1.406       .  A
C741        C746   1.403       .  A
C741        H751   1.083       .  S
C742        C747   1.500       .  S
C742        C743   1.415       .  A
C743        C744   1.407       .  A
C743        N748   1.431       .  S
C744        C745   1.405       .  A
C744        H749   1.084       .  S
C745        C746   1.412       .  A
C746        N750   1.430       .  S
C747        C752   1.408       .  A
C747        C756   1.397       .  A
N748        O763   1.262       .  A
N748        O764   1.262       .  A
N750        O761   1.262       .  A
N750        O762   1.262       .  A
C752        C753   1.404       .  A
C752        N757   1.432       .  S
C753        C754   1.422       .  A
C753        H758   1.078       .  S
C754        C755   1.436       .  A
C755        C756   1.406       .  A
C755        N759   1.427       .  S
C756        H760   1.084       .  S
N757        O767   1.262       .  A
N757        O768   1.262       .  A
N759        O765   1.263       .  A
N759        O766   1.262       .  A
C769        C770   1.397       .  A
C769        C774   1.398       .  A
C769        H779   1.084       .  S
C770        C775   1.483       .  S
C770        C771   1.404       .  A
C771        C772   1.402       .  A
C771        N776   1.434       .  S
C772        C773   1.420       .  A
C772        H777   1.078       .  S
C773        C774   1.432       .  A
C774        N778   1.432       .  S
C775        C780   1.409       .  A
C775        C784   1.406       .  A
N776        O791   1.262       .  A
N776        O792   1.263       .  A
N778        O789   1.262       .  A
N778        O790   1.262       .  A
C780        C781   1.396       .  A
C780        N785   1.433       .  S
C781        C782   1.405       .  A
C781        H786   1.084       .  S
C782        C783   1.410       .  A
C783        C784   1.404       .  A
C783        N787   1.428       .  S
C784        H788   1.084       .  S
N785        O795   1.262       .  A
N785        O796   1.262       .  A
N787        O793   1.261       .  A
N787        O794   1.262       .  A
C797        C798   1.395       .  A
C797        C802   1.397       .  A
C797        H807   1.084       .  S
C798        C803   1.491       .  S
C798        C799   1.407       .  A
C799        C800   1.409       .  A
C799        N804   1.431       .  S
C800        C801   1.422       .  A
C800        H805   1.078       .  S
C801        C802   1.432       .  A
C802        N806   1.429       .  S
C803        C808   1.410       .  A
C803        C812   1.406       .  A
N804        O819   1.262       .  A
N804        O820   1.262       .  A
N806        O817   1.262       .  A
N806        O818   1.262       .  A
C808        C809   1.398       .  A
C808        N813   1.433       .  S
C809        C810   1.408       .  A
C809        H814   1.083       .  S
C810        C811   1.416       .  A
C811        C812   1.409       .  A
C811        N815   1.429       .  S
C812        H816   1.084       .  S
N813        O823   1.262       .  A
N813        O824   1.262       .  A
N815        O821   1.262       .  A
N815        O822   1.262       .  A
C825        C826   1.402       .  A
C825        C830   1.404       .  A
C825        H835   1.084       .  S
C826        C831   1.483       .  S
C826        C827   1.408       .  A
C827        C828   1.403       .  A
C827        N832   1.432       .  S
C828        C829   1.409       .  A
C828        H833   1.084       .  S
C829        C830   1.414       .  A
C830        N834   1.430       .  S
C831        C836   1.401       .  A
C831        C840   1.392       .  A
N832        O847   1.262       .  A
N832        O848   1.262       .  A
N834        O845   1.262       .  A
N834        O846   1.262       .  A
C836        C837   1.402       .  A
C836        N841   1.429       .  S
C837        C838   1.422       .  A
C837        H842   1.084       .  S
C838        C839   1.444       .  A
C839        C840   1.403       .  A
C839        N843   1.434       .  S
C840        H844   1.085       .  S
N841        O851   1.262       .  A
N841        O852   1.262       .  A
N843        O849   1.263       .  A
N843        O850   1.261       .  A
C853        C854   1.402       .  A
C853        C858   1.401       .  A
C853        H863   1.084       .  S
C854        C859   1.502       .  S
C854        C855   1.416       .  A
C855        C856   1.411       .  A
C855        N860   1.430       .  S
C856        C857   1.408       .  A
C856        H861   1.084       .  S
C857        C858   1.418       .  A
C858        N862   1.430       .  S
C859        C864   1.408       .  A
C859        C868   1.402       .  A
N860        O875   1.262       .  A
N860        O876   1.262       .  A
N862        O873   1.262       .  A
N862        O874   1.261       .  A
C864        C865   1.400       .  A
C864        N869   1.432       .  S
C865        C866   1.418       .  A
C865        H870   1.083       .  S
C866        C867   1.444       .  A
C867        C868   1.413       .  A
C867        N871   1.437       .  S
C868        H872   1.083       .  S
N869        O879   1.262       .  A
N869        O880   1.262       .  A
N871        O877   1.260       .  A
N871        O878   1.263       .  A
C881        C882   1.404       .  A
C881        C886   1.403       .  A
C881        H891   1.083       .  S
C882        C887   1.491       .  S
C882        C883   1.412       .  A
C883        C884   1.400       .  A
C883        N888   1.430       .  S
C884        C885   1.407       .  A
C884        H889   1.084       .  S
C885        C886   1.416       .  A
C886        N890   1.429       .  S
C887        C892   1.407       .  A
C887        C896   1.397       .  A
N888        O903   1.262       .  A
N888        O904   1.262       .  A
N890        O901   1.262       .  A
N890        O902   1.262       .  A
C892        C893   1.401       .  A
C892        N897   1.431       .  S
C893        C894   1.419       .  A
C893        H898   1.077       .  S
C894        C895   1.434       .  A
C895        C896   1.401       .  A
C895        N899   1.430       .  S
C896        H900   1.084       .  S
N897        O907   1.262       .  A
N897        O908   1.262       .  A
N899        O905   1.262       .  A
N899        O906   1.262       .  A
C909        C910   1.403       .  A
C909        C914   1.406       .  A
C909        H919   1.083       .  S
C910        C915   1.485       .  S
C910        C911   1.406       .  A
C911        C912   1.397       .  A
C911        N916   1.430       .  S
C912        C913   1.409       .  A
C912        H917   1.084       .  S
C913        C914   1.419       .  A
C914        N918   1.435       .  S
C915        C920   1.400       .  A
C915        C924   1.400       .  A
N916        O931   1.262       .  A
N916        O932   1.262       .  A
N918        O929   1.262       .  A
N918        O930   1.262       .  A
C920        C921   1.395       .  A
C920        N925   1.430       .  S
C921        C922   1.423       .  A
C921        H926   1.083       .  S
C922        C923   1.436       .  A
C923        C924   1.407       .  A
C923        N927   1.433       .  S
C924        H928   1.084       .  S
N925        O935   1.262       .  A
N925        O936   1.262       .  A
N927        O933   1.261       .  A
N927        O934   1.263       .  A
C937        C938   1.397       .  A
C937        C942   1.398       .  A
C937        H947   1.084       .  S
C938        C943   1.478       .  S
C938        C939   1.408       .  A
C939        C940   1.406       .  A
C939        N944   1.428       .  S
C940        C941   1.405       .  A
C940        H945   1.084       .  S
C941        C942   1.417       .  A
C942        N946   1.432       .  S
C943        C948   1.399       .  A
C943        C952   1.395       .  A
N944        O959   1.262       .  A
N944        O960   1.261       .  A
N946        O957   1.262       .  A
N946        O958   1.262       .  A
C948        C949   1.398       .  A
C948        N953   1.429       .  S
C949        C950   1.418       .  A
C949        H954   1.077       .  S
C950        C951   1.435       .  A
C951        C952   1.404       .  A
C951        N955   1.433       .  S
C952        H956   1.084       .  S
N953        O963   1.262       .  A
N953        O964   1.262       .  A
N955        O961   1.261       .  A
N955        O962   1.261       .  A
C965        C966   1.399       .  A
C965        C970   1.408       .  A
C965        H975   1.084       .  S
C966        C971   1.502       .  S
C966        C967   1.412       .  A
C967        C968   1.405       .  A
C967        N972   1.433       .  S
C968        C969   1.418       .  A
C968        H973   1.076       .  S
C969        C970   1.437       .  A
C970        N974   1.431       .  S
C971        C976   1.417       .  A
C971        C980   1.402       .  A
N972        O987   1.262       .  A
N972        O988   1.262       .  A
N974        O985   1.262       .  A
N974        O986   1.262       .  A
C976        C977   1.410       .  A
C976        N981   1.430       .  S
C977        C978   1.405       .  A
C977        H982   1.084       .  S
C978        C979   1.421       .  A
C979        C980   1.401       .  A
C979        N983   1.433       .  S
C980        H984   1.083       .  S
N981        O991   1.262       .  A
N981        O992   1.262       .  A
N983        O989   1.262       .  A
N983        O990   1.262       .  A
C993        C994   1.398       .  A
C993        C998   1.408       .  A
C993       H1003   1.084       .  S
C994        C999   1.484       .  S
C994        C995   1.404       .  A
C995        C996   1.399       .  A
C995       N1000   1.435       .  S
C996        C997   1.419       .  A
C996       H1001   1.076       .  S
C997        C998   1.437       .  A
C998       N1002   1.438       .  S
C999       C1004   1.410       .  A
C999       C1008   1.404       .  A
N1000      O1015   1.262       .  A
N1000      O1016   1.263       .  A
N1002      O1013   1.261       .  A
N1002      O1014   1.263       .  A
C1004      C1005   1.401       .  A
C1004      N1009   1.434       .  S
C1005      C1006   1.410       .  A
C1005      H1010   1.084       .  S
C1006      C1007   1.413       .  A
C1007      C1008   1.405       .  A
C1007      N1011   1.432       .  S
C1008      H1012   1.084       .  S
N1009      O1019   1.262       .  A
N1009      O1020   1.262       .  A
N1011      O1017   1.263       .  A
N1011      O1018   1.262       .  A
