geometry optimzed in LAMMPS
_audit_creation_date              2020-11-30 
_audit_creation_method            'lammps2cif' 
_symmetry_space_group_name_H-M    'P1' 
_symmetry_Int_Tables_number       1 
_symmetry_cell_setting            triclinic 
loop_ 
_symmetry_equiv_pos_as_xyz 
  x,y,z 
_cell_length_a                    32.39833397 
_cell_length_b                    32.31174643448866 
_cell_length_c                    78.41124447038972 
_cell_angle_alpha                 90.30810159489131 
_cell_angle_beta                  89.90238136071547 
_cell_angle_gamma                 120.08608053063462 
loop_ 
_atom_site_label 
_atom_site_type_symbol 
_atom_site_fract_x 
_atom_site_fract_y 
_atom_site_fract_z 
_atom_site_charge 
C1          C  0.11133731  0.52756739  0.53172801     0.02600
C2          C  0.09233800  0.50860031  0.51551224    -0.13600
C3          C  0.11186059  0.48639841  0.50555205     0.00100
C4          C  0.14998663  0.48268301  0.51210756    -0.12100
C5          C  0.16753078  0.49914022  0.52851166     0.02600
C6          C  0.14919771  0.52282473  0.53814358    -0.11500
H7          H  0.06180098  0.51038683  0.51084057     0.08100
H8          H  0.16443193  0.46427367  0.50480727     0.05700
H9          H  0.16332644  0.53607096  0.55077085     0.05500
C10         C  0.92966032  0.57065538  0.44164608     0.02600
C11         C  0.94966815  0.58797762  0.45790936    -0.13600
C12         C  0.93542306  0.61551887  0.46755419     0.00100
C13         C  0.90137357  0.62548063  0.46099345    -0.12100
C14         C  0.88091804  0.60844213  0.44497168     0.02600
C15         C  0.89527469  0.58111693  0.43523246    -0.11500
H16         H  0.97547390  0.57946466  0.46311128     0.08100
H17         H  0.89026350  0.64639092  0.46857197     0.05700
H18         H  0.87973346  0.56794722  0.42276001     0.05500
O19         O  0.02961140  0.70254322  0.60465563    -0.82400
C20         C  0.98340699  0.69592776  0.53542410     0.97000
O21         O  0.95502275  0.67188784  0.54716728    -0.71500
O22         O  0.00102580  0.63309831  0.56064648    -0.75100
Al23       Al  0.96973005  0.66391093  0.57008145     1.49000
C24         C  0.03653363  0.63268789  0.56704925     0.92200
O25         O  0.11780518  0.74339144  0.56779398    -0.81300
O26         O  0.05062722  0.81015744  0.57962179    -0.74900
Al27       Al  0.07054944  0.72151818  0.58533666     1.90100
O28         O  0.09846939  0.79183255  0.55529668    -0.73900
O29         O  0.96906398  0.75646132  0.56333351    -0.73800
O30         O  0.02002643  0.73510702  0.53902737    -0.79400
O31         O  0.93551037  0.69220570  0.57930742    -0.77600
O32         O  0.02502767  0.71867687  0.57187141    -1.13800
O33         O  0.96970179  0.64132277  0.59254782    -0.73000
C34         C  0.98918393  0.66544111  0.60578050     0.97800
C35         C  0.12867164  0.77926574  0.55848464     0.94100
Al36       Al  0.03347900  0.76901334  0.56013590     1.55600
O37         O  0.05743812  0.65756513  0.58012826    -0.77600
C38         C  0.93790611  0.73043287  0.57421903     0.98300
C39         C  0.08352434  0.81743261  0.58996040     0.93200
O40         O  0.09369008  0.78523475  0.59261423    -0.82900
C41         C  0.25959782  0.23989140  0.10749873     0.02600
C42         C  0.22596614  0.25054481  0.10049126    -0.13600
C43         C  0.20977450  0.27677902  0.10994251     0.00100
C44         C  0.22618473  0.29116055  0.12659507    -0.12100
C45         C  0.25902696  0.28048758  0.13392034     0.02600
C46         C  0.27586047  0.25508345  0.12434061    -0.11500
H47         H  0.21165018  0.23773218  0.08787297     0.08100
H48         H  0.21355979  0.31124448  0.13390002     0.05700
H49         H  0.30103838  0.24652830  0.13010855     0.05500
C50         C  0.43460046  0.17877919  0.20142745     0.02600
C51         C  0.41898727  0.16825602  0.18432429    -0.13600
C52         C  0.43660023  0.14608251  0.17352438     0.00100
C53         C  0.47108707  0.13608926  0.17940879    -0.12100
C54         C  0.48473276  0.14306109  0.19651613     0.02600
C55         C  0.46627155  0.16421988  0.20758136    -0.11500
H56         H  0.39334125  0.17730707  0.17935665     0.08100
H57         H  0.48573817  0.12053333  0.17072289     0.05700
H58         H  0.47598201  0.16854028  0.22094848     0.05500
O59         O  0.38955327  0.99798548  0.08070485    -0.82400
C60         C  0.32029097  0.11944924  0.07322287     0.97000
O61         O  0.35721370  0.12095273  0.07915993    -0.71500
O62         O  0.40652468  0.08648112  0.09329653    -0.75100
Al63       Al  0.38654213  0.08737127  0.07047584     1.49000
C64         C  0.38108323  0.06661128  0.10613052     0.92200
O65         O  0.26091785  0.96511429  0.09130108    -0.81300
O66         O  0.25960116  0.95856255  0.05320614    -0.74900
Al67       Al  0.32559006  0.98647730  0.08505957     1.90100
O68         O  0.23996592  0.00894596  0.07631033    -0.73900
O69         O  0.32058791  0.03783865  0.03801791    -0.73800
O70         O  0.29657590  0.09046053  0.06125851    -0.79400
O71         O  0.38167676  0.10315452  0.04736806    -0.77600
O72         O  0.33127093  0.03229656  0.07122434    -1.13800
O73         O  0.41848742  0.05625895  0.06192642    -0.73000
C74         C  0.41800112  0.02044950  0.06853444     0.97800
C75         C  0.23070688  0.97719562  0.08729133     0.94100
Al76       Al  0.28334189  0.02487061  0.05811413     1.55600
O77         O  0.34323703  0.02713301  0.10436698    -0.77600
C78         C  0.36002211  0.07475523  0.03522247     0.98300
C79         C  0.27221852  0.92876445  0.05729549     0.93200
O80         O  0.30545204  0.93939170  0.06778053    -0.82900
O81         O  0.36839351  0.37305282  0.27164169    -0.82400
C82         C  0.30878631  0.35028260  0.20331488     0.97000
O83         O  0.28344481  0.32722629  0.21588551    -0.71500
O84         O  0.33034622  0.29098443  0.23046122    -0.75100
Al85       Al  0.30128799  0.32486654  0.23902216     1.49000
C86         C  0.36623358  0.29097975  0.23663921     0.92200
O87         O  0.44735361  0.40379366  0.23222257    -0.81300
O88         O  0.37814798  0.47025295  0.24469520    -0.74900
Al89       Al  0.40485047  0.38681604  0.25118108     1.90100
O90         O  0.42713552  0.45230633  0.22024991    -0.73900
O91         O  0.29623047  0.41403917  0.22957669    -0.73800
O92         O  0.34592836  0.39022656  0.20568867    -0.79400
O93         O  0.26863319  0.35493965  0.24784381    -0.77600
O94         O  0.35619880  0.37996187  0.23862865    -1.13800
O95         O  0.30568509  0.30905549  0.26216250    -0.73000
C96         C  0.32785748  0.33725985  0.27432273     0.97800
C97         C  0.45739042  0.43903868  0.22268631     0.94100
Al98       Al  0.36124509  0.42759922  0.22593822     1.55600
O99         O  0.39151902  0.32170403  0.24789879    -0.77600
C100        C  0.26846387  0.39081539  0.24172740     0.98300
C101        C  0.41383768  0.48141995  0.25404578     0.93200
O102        O  0.42885786  0.45260608  0.25643196    -0.82900
C103        C  0.20495793  0.28924307  0.36829482     0.02600
C104        C  0.21813296  0.30567308  0.35137348    -0.13600
C105        C  0.24319830  0.28933373  0.34133877     0.00100
C106        C  0.25510506  0.25696731  0.34820750    -0.12100
C107        C  0.24293247  0.24028250  0.36489855     0.02600
C108        C  0.21810630  0.25692623  0.37499372    -0.11500
H109        H  0.20784125  0.32990129  0.34590935     0.08100
H110        H  0.27396666  0.24429099  0.34027377     0.05700
H111        H  0.20924778  0.24513596  0.38808751     0.05500
C112        C  0.15482471  0.45871867  0.27662223     0.02600
C113        C  0.13048018  0.43711744  0.29188910    -0.13600
C114        C  0.10382816  0.45420379  0.30048041     0.00100
C115        C  0.09950070  0.49143773  0.29346662    -0.12100
C116        C  0.12176059  0.51218298  0.27806261     0.02600
C117        C  0.14975681  0.49620567  0.26973230    -0.11500
H118        H  0.13240083  0.40728286  0.29720804     0.08100
H119        H  0.07841876  0.50417761  0.30000326     0.05700
H120        H  0.16732711  0.51290204  0.25789186     0.05500
O121        O  0.94299492  0.40167956  0.40122571    -0.82400
C122        C  0.07675193  0.33922104  0.40371402     0.97000
O123        O  0.08756021  0.38279749  0.40447925    -0.71500
O124        O  0.05387238  0.40932835  0.38004019    -0.75100
Al125      Al  0.04829846  0.41267191  0.40362024     1.49000
C126        C  0.02441532  0.40100275  0.36834780     0.92200
O127        O  0.93837925  0.29268481  0.38079650    -0.81300
O128        O  0.93326063  0.31004415  0.43046021    -0.74900
Al129      Al  0.94380746  0.34860805  0.39143409     1.90100
O130        O  0.94379049  0.26005202  0.40455056    -0.73900
O131        O  0.02577355  0.35272098  0.43676964    -0.73800
O132        O  0.03594594  0.30712682  0.40835186    -0.79400
O133        O  0.05125194  0.42439070  0.42711254    -0.77600
O134        O  0.99271919  0.35776007  0.40462691    -1.13800
O135        O  0.01971585  0.45303579  0.40261073    -0.73000
C136        C  0.97685128  0.44292710  0.40480124     0.97800
C137        C  0.93023947  0.25616365  0.38927240     0.94100
Al138      Al  0.98582897  0.31176341  0.41882306     1.55600
O139        O  0.98095867  0.38412789  0.37194417    -0.77600
C140        C  0.04486966  0.39706269  0.43933527     0.98300
C141        C  0.89478791  0.30000362  0.42297649     0.93200
O142        O  0.89496090  0.31048942  0.40748271    -0.82900
C143        C  0.51933328  0.94180962  0.03198990     0.02600
C144        C  0.53523286  0.95939107  0.01541429    -0.13600
C145        C  0.56109773  0.94325418  0.00586040     0.00100
C146        C  0.57154053  0.90989272  0.01280156    -0.12100
C147        C  0.55688302  0.89242774  0.02928576     0.02600
C148        C  0.53002034  0.90788904  0.03872288    -0.11500
H149        H  0.52754287  0.98554262  0.00993508     0.08100
H150        H  0.59275022  0.89878966  0.00547332     0.05700
H151        H  0.51885815  0.89471468  0.05153362     0.05500
C152        C  0.48449592  0.13336113  0.94183281     0.02600
C153        C  0.46994236  0.11433368  0.95834739    -0.13600
C154        C  0.44654398  0.13104888  0.96901214     0.00100
C155        C  0.43778677  0.16672629  0.96328972    -0.12100
C156        C  0.45095526  0.18528360  0.94688812     0.02600
C157        C  0.47398867  0.16838912  0.93608563    -0.11500
H158        H  0.47673323  0.08667124  0.96288043     0.08100
H159        H  0.41876129  0.17879962  0.97144638     0.05700
H160        H  0.48240400  0.18142167  0.92313255     0.05500
O161        O  0.67464176  0.06473798  0.87086967    -0.82400
C162        C  0.64178843  0.99900746  0.93850579     0.97000
O163        O  0.61974639  0.97518034  0.92548347    -0.71500
O164        O  0.58704014  0.02334360  0.90986102    -0.75100
Al165      Al  0.62149052  0.99361278  0.90228624     1.49000
C166        C  0.59005958  0.06140469  0.90444425     0.92200
O167        O  0.70236316  0.14001307  0.91119280    -0.81300
O168        O  0.76743854  0.06911860  0.89927974    -0.74900
Al169      Al  0.68665189  0.09888609  0.89173988     1.90100
O170        O  0.74747365  0.11665472  0.92357309    -0.73900
O171        O  0.70850139  0.98692256  0.91370766    -0.73800
O172        O  0.68272765  0.03535286  0.93694885    -0.79400
O173        O  0.65104221  0.95880787  0.89474731    -0.77600
O174        O  0.67700781  0.04818760  0.90381588    -1.13800
O175        O  0.61054206  0.99934967  0.87866764    -0.73000
C176        C  0.63959736  0.02446887  0.86718687     0.97800
C177        C  0.73674358  0.14853419  0.92098142     0.94100
Al178      Al  0.72244332  0.05148265  0.91737232     1.55600
O179        O  0.62243640  0.08731757  0.89393544    -0.77600
C180        C  0.68514231  0.95752085  0.90195019     0.98300
C181        C  0.78007965  0.10573564  0.89023744     0.93200
O182        O  0.75233807  0.12177711  0.88754439    -0.82900
C183        C  0.85813429  0.60812045  0.69811075     0.02600
C184        C  0.87417015  0.62708590  0.68168943    -0.13600
C185        C  0.89910826  0.61052774  0.67169151     0.00100
C186        C  0.90834273  0.57587927  0.67814759    -0.12100
C187        C  0.89407706  0.55793004  0.69454936     0.02600
C188        C  0.86853612  0.57370617  0.70451012    -0.11500
H189        H  0.86686632  0.65396796  0.67668564     0.08100
H190        H  0.92840740  0.56392305  0.67050541     0.05700
H191        H  0.85784168  0.56022904  0.71733430     0.05500
C192        C  0.81831983  0.78950186  0.60975110     0.02600
C193        C  0.80868360  0.82390614  0.60277223    -0.13600
C194        C  0.78558511  0.84282106  0.61248141     0.00100
C195        C  0.77090738  0.82655323  0.62904905    -0.12100
C196        C  0.77964922  0.79215841  0.63617463     0.02600
C197        C  0.80424347  0.77434935  0.62667602    -0.11500
H198        H  0.81934391  0.83622960  0.58981267     0.08100
H199        H  0.75199045  0.84035437  0.63639543     0.05700
H200        H  0.81236587  0.74893330  0.63248579     0.05500
C201        C  0.58886867  0.89061041  0.77550716     0.02600
C202        C  0.55239902  0.89767256  0.76894839    -0.13600
C203        C  0.53948399  0.92812006  0.77735606     0.00100
C204        C  0.56230676  0.95014531  0.79263466    -0.12100
C205        C  0.59734010  0.94226169  0.79966681     0.02600
C206        C  0.61127758  0.91307901  0.79095368    -0.11500
H207        H  0.53443013  0.87974442  0.75727177     0.08100
H208        H  0.55232323  0.97335989  0.79929368     0.05700
H209        H  0.63865376  0.90712953  0.79632562     0.05500
C210        C  0.75085368  0.83978751  0.86978579     0.02600
C211        C  0.78461362  0.82904150  0.87663919    -0.13600
C212        C  0.80205258  0.80491485  0.86667758     0.00100
C213        C  0.78637401  0.79243584  0.84991897    -0.12100
C214        C  0.75042056  0.79927192  0.84339522     0.02600
C215        C  0.73277905  0.82344666  0.85321534    -0.11500
H216        H  0.79703922  0.83917473  0.88965205     0.08100
H217        H  0.80123194  0.77554224  0.84196118     0.05700
H218        H  0.70570642  0.82995879  0.84793664     0.05500
O219        O  0.61457059  0.72961955  0.73438063    -0.82400
C220        C  0.74594629  0.66666971  0.73890656     0.97000
O221        O  0.75744466  0.71027331  0.74015888    -0.71500
O222        O  0.72896208  0.74299449  0.71607386    -0.75100
Al223      Al  0.71905463  0.74056349  0.73975585     1.49000
C224        C  0.70074976  0.73352478  0.70385009     0.92200
O225        O  0.61221377  0.62077647  0.71452628    -0.81300
O226        O  0.59895311  0.63517386  0.76390494    -0.74900
Al227      Al  0.61687810  0.67682862  0.72504573     1.90100
O228        O  0.61478114  0.58758691  0.73841830    -0.73900
O229        O  0.68980612  0.67594815  0.77240010    -0.73800
O230        O  0.70555063  0.63425890  0.74393266    -0.79400
O231        O  0.71881616  0.74844754  0.76340546    -0.77600
O232        O  0.66339866  0.68518283  0.73937960    -1.13800
O233        O  0.69014304  0.78012108  0.73940366    -0.73000
C234        C  0.64695365  0.76984231  0.73966612     0.97800
C235        C  0.60229444  0.58381421  0.72307773     0.94100
Al236      Al  0.65378947  0.63773062  0.75346760     1.55600
O237        O  0.65669066  0.71269060  0.70659326    -0.77600
C238        C  0.70808254  0.71979216  0.77549418     0.98300
C239        C  0.56261125  0.62786110  0.75546176     0.93200
O240        O  0.56611927  0.63887479  0.73994083    -0.82900
C241        C  0.28577303  0.46235633  0.77999376     0.02600
C242        C  0.33013018  0.49700788  0.77339433    -0.13600
C243        C  0.37270246  0.50899676  0.78207986     0.00100
C244        C  0.37015804  0.48774972  0.79782207    -0.12100
C245        C  0.32623362  0.45443477  0.80481808     0.02600
C246        C  0.28394326  0.44140267  0.79584779    -0.11500
H247        H  0.33141314  0.51404576  0.76139991     0.08100
H248        H  0.40264876  0.49707389  0.80474665     0.05700
H249        H  0.24984649  0.41545993  0.80122971     0.05500
C250        C  0.05506425  0.29092232  0.87100117     0.02600
C251        C  0.05211390  0.31447328  0.85635624    -0.13600
C252        C  0.00957960  0.29550985  0.84689619     0.00100
C253        C  0.96917805  0.25432641  0.85267181    -0.12100
C254        C  0.97027295  0.23313381  0.86795748     0.02600
C255        C  0.01321107  0.25067371  0.87697527    -0.11500
H256        H  0.08302758  0.34710710  0.85208713     0.08100
H257        H  0.93617911  0.23912995  0.84544485     0.05700
H258        H  0.01370596  0.23307730  0.88861988     0.05500
O259        O  0.10141527  0.43746580  0.73915386    -0.82400
C260        C  0.90587066  0.30367042  0.73954962     0.97000
O261        O  0.93796805  0.29273474  0.74174079    -0.71500
O262        O  0.00203020  0.32352064  0.71864322    -0.75100
Al263      Al  0.00690868  0.33217104  0.74227366     1.49000
C264        C  0.02388859  0.35226791  0.70685667     0.92200
O265        O  0.00062082  0.43933126  0.71617897    -0.81300
O266        O  0.01520459  0.45058610  0.76587918    -0.74900
Al267      Al  0.04895074  0.43520546  0.72832897     1.90100
O268        O  0.95745581  0.43520244  0.73840079    -0.73900
O269        O  0.96558104  0.35991374  0.77367348    -0.73800
O270        O  0.91348252  0.34445645  0.74392776    -0.79400
O271        O  0.01181293  0.33244092  0.76601650    -0.77600
O272        O  0.00739726  0.38779524  0.74167225    -1.13800
O273        O  0.07585862  0.36122747  0.74277157    -0.73000
C274        C  0.10880866  0.40457586  0.74382569     0.97800
C275        C  0.96965915  0.44658582  0.72311257     0.94100
Al276      Al  0.96625201  0.39626642  0.75439509     1.55600
O277        O  0.04925101  0.39612426  0.71010047    -0.77600
C278        C  0.99160491  0.34268513  0.77750804     0.98300
C279        C  0.04671383  0.48756127  0.75845941     0.93200
O280        O  0.05846550  0.48561907  0.74328601    -0.82900
O281        O  0.31044128  0.34850679  0.94140190    -0.82400
C282        C  0.35016177  0.40957862  0.87375007     0.97000
O283        O  0.35232738  0.43584577  0.88609800    -0.71500
O284        O  0.27024970  0.38895543  0.90076016    -0.75100
Al285      Al  0.33263115  0.41823416  0.90936177     1.49000
C286        C  0.23403833  0.35193441  0.90612553     0.92200
O287        O  0.26664845  0.27143718  0.90134390    -0.81300
O288        O  0.40094911  0.34038254  0.91524919    -0.74900
Al289      Al  0.28997470  0.31332494  0.92075384     1.90100
O290        O  0.33675502  0.29478827  0.89015916    -0.73900
O291        O  0.42733047  0.42347267  0.90035676    -0.73800
O292        O  0.35593484  0.37441825  0.87628495    -0.79400
O293        O  0.39541340  0.45214872  0.91812628    -0.77600
O294        O  0.33303145  0.36326304  0.90883573    -1.13800
O295        O  0.31249279  0.41338438  0.93253697    -0.73000
C296        C  0.31651679  0.38945653  0.94441316     0.97800
C297        C  0.29373051  0.26337624  0.89196567     0.94100
Al298      Al  0.37669670  0.35900631  0.89643325     1.55600
O299        O  0.23793275  0.32578750  0.91723575    -0.77600
C300        C  0.43144652  0.45220322  0.91208974     0.98300
C301        C  0.37520148  0.30376690  0.92414826     0.93200
O302        O  0.33161650  0.28988282  0.92632164    -0.82900
C303        C  0.40246767  0.51872590  0.03698722     0.02600
C304        C  0.35728597  0.50985230  0.04264504    -0.13600
C305        C  0.31735966  0.48755419  0.03180648     0.00100
C306        C  0.32279176  0.47406325  0.01543967    -0.12100
C307        C  0.36605250  0.47961258  0.00996627     0.02600
C308        C  0.40648217  0.50309513  0.02048797    -0.11500
H309        H  0.35317267  0.51959265  0.05552288     0.08100
H310        H  0.29217088  0.45694751  0.00697628     0.05700
H311        H  0.44059515  0.50935339  0.01582111     0.05500
C312        C  0.61818127  0.56781259  0.94170037     0.02600
C313        C  0.62170551  0.58491367  0.95846428    -0.13600
C314        C  0.66564208  0.60758131  0.96698572     0.00100
C315        C  0.70649490  0.61393259  0.95854917    -0.12100
C316        C  0.70396314  0.59802936  0.94174748     0.02600
C317        C  0.65962837  0.57452846  0.93334770    -0.11500
H318        H  0.59014199  0.58073446  0.96486026     0.08100
H319        H  0.74070037  0.63216569  0.96500072     0.05700
H320        H  0.65738638  0.56107213  0.92048683     0.05500
O321        O  0.58925136  0.68305235  0.07776868    -0.82400
C322        C  0.78156227  0.74114624  0.06993890     0.97000
O323        O  0.74860547  0.69781009  0.06866160    -0.71500
O324        O  0.69116298  0.66836063  0.09423147    -0.75100
Al325      Al  0.68019417  0.66889559  0.07069716     1.49000
C326        C  0.67358392  0.67854640  0.10668779     0.92200
O327        O  0.70029564  0.79133409  0.09544302    -0.81300
O328        O  0.66489225  0.77227874  0.04633498    -0.74900
Al329      Al  0.64630280  0.73568363  0.08594894     1.90100
O330        O  0.73077643  0.82322720  0.07070533    -0.73900
O331        O  0.71586944  0.73101665  0.03806951    -0.73800
O332        O  0.77407096  0.77460417  0.06579592    -0.79400
O333        O  0.66859384  0.65919278  0.04709859    -0.77600
O334        O  0.68150958  0.72491208  0.07105323    -1.13800
O335        O  0.61181204  0.63066618  0.07271474    -0.73000
C336        C  0.57946365  0.64180941  0.07305571     0.97800
C337        C  0.72616571  0.82758760  0.08641809     0.94100
Al338      Al  0.71842857  0.77098451  0.05641617     1.55600
O339        O  0.65134810  0.70055863  0.10434201    -0.77600
C340        C  0.68984098  0.68720223  0.03505306     0.98300
C341        C  0.63763490  0.78148225  0.05521067     0.93200
O342        O  0.63292431  0.77327831  0.07101018    -0.82900
C343        C  0.73253270  0.18910215  0.69990477     0.02600
C344        C  0.73431545  0.17071162  0.68372870    -0.13600
C345        C  0.69208352  0.14342938  0.67432979     0.00100
C346        C  0.64835509  0.13351654  0.68121640    -0.12100
C347        C  0.64581264  0.15063161  0.69729951     0.02600
C348        C  0.68803417  0.17902194  0.70649880    -0.11500
H349        H  0.76825633  0.17833261  0.67836550     0.08100
H350        H  0.61589476  0.11145588  0.67405672     0.05700
H351        H  0.68619355  0.19265002  0.71895673     0.05500
C352        C  0.95687592  0.23118417  0.61339629     0.02600
C353        C  0.00036920  0.24232278  0.60556837    -0.13600
C354        C  0.04342015  0.26858777  0.61446332     0.00100
C355        C  0.04317289  0.28446721  0.63100980    -0.12100
C356        C  0.00050059  0.27449926  0.63883859     0.02600
C357        C  0.95722020  0.24786480  0.63004087    -0.11500
H358        H  0.00079140  0.23126749  0.59252801     0.08100
H359        H  0.07665108  0.30530908  0.63779282     0.05700
H360        H  0.92406188  0.24019162  0.63610964     0.05500
C361        C  0.40384335  0.94821021  0.53276523     0.02600
C362        C  0.40372902  0.96713208  0.51658239    -0.13600
C363        C  0.36067215  0.95138489  0.50769047     0.00100
C364        C  0.31788869  0.91710033  0.51512511    -0.12100
C365        C  0.31746974  0.89765474  0.53105861     0.02600
C366        C  0.36046929  0.91258267  0.53972071    -0.11500
H367        H  0.43692113  0.99446580  0.51102944     0.08100
H368        H  0.28448558  0.90560545  0.50850795     0.05700
H369        H  0.35995838  0.89734546  0.55204201     0.05500
C370        C  0.61861219  0.12073129  0.44585586     0.02600
C371        C  0.61684327  0.10276253  0.46238495    -0.13600
C372        C  0.65893512  0.11942520  0.47196369     0.00100
C373        C  0.70200135  0.15546905  0.46538570    -0.12100
C374        C  0.70509383  0.17322015  0.44892647     0.02600
C375        C  0.66310291  0.15532399  0.43908922    -0.11500
H376        H  0.58316217  0.07535218  0.46758146     0.08100
H377        H  0.73393723  0.16898631  0.47312826     0.05700
H378        H  0.66487565  0.16788533  0.42619275     0.05500
O379        O  0.65753478  0.01743273  0.60571009    -0.82400
C380        C  0.70153236  0.07350291  0.53793258     0.97000
O381        O  0.70457654  0.10090111  0.54997700    -0.71500
O382        O  0.61888853  0.05015378  0.56219763    -0.75100
Al383      Al  0.67972357  0.08256774  0.57250455     1.49000
C384        C  0.58306765  0.01297683  0.56780488     0.92200
O385        O  0.61899560  0.93634693  0.56651795    -0.81300
O386        O  0.75191325  0.01052457  0.58155901    -0.74900
Al387      Al  0.63966466  0.97972989  0.58538712     1.90100
O388        O  0.69002790  0.95998984  0.55611743    -0.73900
O389        O  0.77597669  0.09121736  0.56578002    -0.73800
O390        O  0.70703459  0.03830677  0.54088682    -0.79400
O391        O  0.74079133  0.11827146  0.58277141    -0.77600
O392        O  0.68241099  0.02892911  0.57326102    -1.13800
O393        O  0.65397804  0.07730318  0.59476496    -0.73000
C394        C  0.65891131  0.05690617  0.60758110     0.97800
C395        C  0.64692096  0.92816609  0.55770498     0.94100
Al396      Al  0.72781660  0.02562407  0.56185443     1.55600
O397        O  0.58693142  0.99008232  0.58021363    -0.77600
C398        C  0.77818131  0.11936290  0.57752878     0.98300
C399        C  0.72637591  0.97395999  0.59044121     0.93200
O400        O  0.68222859  0.95820534  0.59220367    -0.82900
O401        O  0.43878143  0.10105008  0.40302179    -0.82400
C402        C  0.24308221  0.96421959  0.40263519     0.97000
O403        O  0.27603924  0.95416784  0.40401111    -0.71500
O404        O  0.33865243  0.98836259  0.38031252    -0.75100
Al405      Al  0.34508392  0.99478082  0.40405914     1.49000
C406        C  0.36088453  0.01802097  0.36878250     0.92200
O407        O  0.33736505  0.10391130  0.37976446    -0.81300
O408        O  0.35182211  0.11100183  0.42943838    -0.74900
Al409      Al  0.38626145  0.09906886  0.39165526     1.90100
O410        O  0.29384051  0.09633482  0.40231942    -0.73900
O411        O  0.30503408  0.01937643  0.43653516    -0.73800
O412        O  0.25065172  0.00481331  0.40724941    -0.79400
O413        O  0.35160655  0.99339456  0.42774614    -0.77600
O414        O  0.34481813  0.05010381  0.40446496    -1.13800
O415        O  0.41427882  0.02432361  0.40401827    -0.73000
C416        C  0.44567471  0.06737029  0.40715349     0.97800
C417        C  0.30690033  0.11110637  0.38731334     0.94100
Al418      Al  0.30358574  0.05665675  0.41774241     1.55600
O419        O  0.38764281  0.06146666  0.37266544    -0.77600
C420        C  0.33146041  0.00211282  0.43974515     0.98300
C421        C  0.38126418  0.14912269  0.42204960     0.93200
O422        O  0.39419062  0.14823536  0.40697282    -0.82900
C423        C  0.06478270  0.84674059  0.36545582     0.02600
C424        C  0.06801678  0.83114543  0.34890484    -0.13600
C425        C  0.02717744  0.80712639  0.33855005     0.00100
C426        C  0.98314168  0.79860532  0.34483267    -0.12100
C427        C  0.97841271  0.81210543  0.36142105     0.02600
C428        C  0.01953361  0.83615165  0.37173222    -0.11500
H429        H  0.10238255  0.83887275  0.34392246     0.08100
H430        H  0.95189225  0.78037268  0.33674922     0.05700
H431        H  0.01637233  0.84601175  0.38468909     0.05500
C432        C  0.29461406  0.89069300  0.27557550     0.02600
C433        C  0.33816519  0.89724558  0.26923966    -0.13600
C434        C  0.38149635  0.92690068  0.27782455     0.00100
C435        C  0.38039083  0.95072689  0.29266806    -0.12100
C436        C  0.33722657  0.94170650  0.29995772     0.02600
C437        C  0.29439106  0.91260357  0.29112909    -0.11500
H438        H  0.33813667  0.87976760  0.25742070     0.08100
H439        H  0.41335199  0.97623332  0.29881917     0.05700
H440        H  0.26098597  0.90697733  0.29635180     0.05500
C441        C  0.95508913  0.78812278  0.10696716     0.02600
C442        C  0.95443121  0.76473065  0.12219950    -0.13600
C443        C  0.99744814  0.77773058  0.13080170     0.00100
C444        C  0.04066979  0.81211578  0.12369387    -0.12100
C445        C  0.04196948  0.83705659  0.10894900     0.02600
C446        C  0.99876718  0.82528660  0.10082306    -0.11500
H447        H  0.92076761  0.73778353  0.12755785     0.08100
H448        H  0.07356204  0.82081211  0.13020069     0.05700
H449        H  0.99875721  0.84541201  0.08982797     0.05500
C450        C  0.73532794  0.61602221  0.19955978     0.02600
C451        C  0.73555786  0.63296041  0.18301425    -0.13600
C452        C  0.69293684  0.61534546  0.17369119     0.00100
C453        C  0.64999101  0.58094441  0.18106989    -0.12100
C454        C  0.64859106  0.56525031  0.19772750     0.02600
C455        C  0.69128925  0.58269758  0.20698388    -0.11500
H456        H  0.76880492  0.65992438  0.17744340     0.08100
H457        H  0.61690321  0.56729390  0.17397582     0.05700
H458        H  0.69013950  0.57104382  0.21998954     0.05500
O459        O  0.99825486  0.68791626  0.26818359    -0.82400
C460        C  0.03551282  0.73699161  0.19888207     0.97000
O461        O  0.03826192  0.76497225  0.21073030    -0.71500
O462        O  0.95542425  0.72074179  0.22588712    -0.75100
Al463      Al  0.01897701  0.75110358  0.23421439     1.49000
C464        C  0.91960458  0.68494779  0.23225138     0.92200
O465        O  0.95246037  0.60317192  0.22977911    -0.81300
O466        O  0.08730310  0.67445120  0.24240825    -0.74900
Al467      Al  0.97704276  0.64860470  0.24813023     1.90100
O468        O  0.02135945  0.62348066  0.21806109    -0.73900
O469        O  0.11323092  0.75414762  0.22604890    -0.73800
O470        O  0.04041337  0.70169346  0.20228045    -0.79400
O471        O  0.08222753  0.78586768  0.24276216    -0.77600
O472        O  0.01917273  0.69598562  0.23510115    -1.13800
O473        O  0.99957530  0.75045070  0.25731651    -0.73000
C474        C  0.00248823  0.72867821  0.27013117     0.97800
C475        C  0.97802191  0.59292462  0.22046677     0.94100
Al476      Al  0.06205123  0.68932120  0.22306313     1.55600
O477        O  0.92506930  0.66050762  0.24371735    -0.77600
C478        C  0.11802692  0.78401396  0.23749062     0.98300
C479        C  0.06248423  0.63995385  0.25219929     0.93200
O480        O  0.01881995  0.62557230  0.25458205    -0.82900
C481        C  0.16112424  0.76618888  0.77680977     0.02600
C482        C  0.14965493  0.71991602  0.77145795    -0.13600
C483        C  0.12704349  0.68107118  0.78271275     0.00100
C484        C  0.11666534  0.68903971  0.79927418    -0.12100
C485        C  0.12611253  0.73423183  0.80454482     0.02600
C486        C  0.14838960  0.77304963  0.79332913    -0.11500
H487        H  0.15744567  0.71417719  0.75851933     0.08100
H488        H  0.09907273  0.65918911  0.80800562     0.05700
H489        H  0.15622393  0.80833099  0.79747388     0.05500
C490        C  0.19876814  0.98829350  0.86951686     0.02600
C491        C  0.20729653  0.03293933  0.87567779    -0.13600
C492        C  0.23188738  0.07405296  0.86566841     0.00100
C493        C  0.24981274  0.07099714  0.84979972    -0.12100
C494        C  0.24442937  0.02774435  0.84391115     0.02600
C495        C  0.21784426  0.98608254  0.85356880    -0.11500
H496        H  0.19581571  0.03595976  0.88837334     0.08100
H497        H  0.26929640  0.10298243  0.84214781     0.05700
H498        H  0.21225681  0.95220154  0.84871475     0.05500
O499        O  0.40751240  0.13082958  0.74587586    -0.82400
C500        C  0.27190285  0.93835539  0.73749939     0.97000
O501        O  0.26130211  0.97117541  0.73790051    -0.71500
O502        O  0.29170910  0.02774933  0.76349628    -0.75100
Al503      Al  0.30125556  0.03980123  0.74012025     1.49000
C504        C  0.31950086  0.04501920  0.77586205     0.92200
O505        O  0.40384490  0.01930107  0.76327896    -0.81300
O506        O  0.41978795  0.05651888  0.71451931    -0.74900
Al507      Al  0.40269977  0.07386736  0.75424761     1.90100
O508        O  0.40244936  0.98812928  0.73817233    -0.73900
O509        O  0.32924522  0.00979806  0.70584874    -0.73800
O510        O  0.31209102  0.94684446  0.73214654    -0.79400
O511        O  0.30128581  0.05238532  0.71689380    -0.77600
O512        O  0.35589759  0.03875558  0.73947222    -1.13800
O513        O  0.33212623  0.10848413  0.74239665    -0.73000
C514        C  0.37588224  0.14003991  0.74110809     0.97800
C515        C  0.41275690  0.99277036  0.75382981     0.94100
Al516      Al  0.36454220  0.00310235  0.72394783     1.55600
O517        O  0.36366429  0.06984694  0.77323978    -0.77600
C518        C  0.31059849  0.03550733  0.70408890     0.98300
C519        C  0.45653100  0.08179056  0.72343370     0.93200
O520        O  0.45326091  0.08640992  0.73924789    -0.82900
C521        C  0.75505249  0.97820187  0.36604546     0.02600
C522        C  0.78908769  0.02291687  0.37288401    -0.13600
C523        C  0.80234487  0.06548924  0.36399220     0.00100
C524        C  0.78204508  0.06282127  0.34803335    -0.12100
C525        C  0.74908921  0.01879183  0.34085922     0.02600
C526        C  0.73498631  0.97642315  0.34995280    -0.11500
H527        H  0.80513095  0.02449667  0.38515193     0.08100
H528        H  0.79211143  0.09537350  0.34102436     0.05700
H529        H  0.70921680  0.94229662  0.34441540     0.05500
C530        C  0.58910028  0.75907867  0.27395418     0.02600
C531        C  0.55340250  0.71492509  0.26740009    -0.13600
C532        C  0.53538822  0.67354735  0.27726622     0.00100
C533        C  0.55334199  0.67569485  0.29357249    -0.12100
C534        C  0.59052364  0.71855714  0.30010481     0.02600
C535        C  0.60846862  0.76048129  0.29024667    -0.11500
H536        H  0.54044351  0.71249606  0.25449358     0.08100
H537        H  0.53953084  0.64309806  0.30095786     0.05700
H538        H  0.63731999  0.79386679  0.29517906     0.05500
C539        C  0.08802051  0.65555308  0.03394967     0.02600
C540        C  0.06611338  0.65504381  0.01842539    -0.13600
C541        C  0.08042628  0.69795486  0.00968682     0.00100
C542        C  0.11630437  0.74109782  0.01650490    -0.12100
C543        C  0.14095921  0.74179791  0.03124455     0.02600
C544        C  0.12609374  0.69879397  0.04007493    -0.11500
H545        H  0.03844352  0.62152350  0.01311859     0.08100
H546        H  0.12585706  0.77416355  0.00996964     0.05700
H547        H  0.14440284  0.69873617  0.05162326     0.05500
C548        C  0.91880575  0.42890058  0.93997474     0.02600
C549        C  0.88424434  0.38397216  0.93324909    -0.13600
C550        C  0.86583855  0.34260060  0.94335818     0.00100
C551        C  0.88282299  0.34604390  0.95996671    -0.12100
C552        C  0.91710396  0.38985753  0.96669144     0.02600
C553        C  0.93376575  0.43142511  0.95701079    -0.11500
H554        H  0.87248205  0.38095143  0.92015189     0.08100
H555        H  0.86980823  0.31411725  0.96767110     0.05700
H556        H  0.95842274  0.46555912  0.96279868     0.05500
C557        C  0.83740693  0.10615096  0.10920597     0.02600
C558        C  0.82306718  0.10859571  0.12601862    -0.13600
C559        C  0.79875272  0.06678178  0.13580966     0.00100
C560        C  0.78764595  0.02267358  0.12871568    -0.12100
C561        C  0.80037893  0.01934629  0.11199711     0.02600
C562        C  0.82555320  0.06117227  0.10232859    -0.11500
H563        H  0.83122303  0.14269499  0.13151489     0.08100
H564        H  0.76746478  0.99038827  0.13615640     0.05700
H565        H  0.83514571  0.05854822  0.08929585     0.05500
C566        C  0.87764140  0.31410080  0.19974402     0.02600
C567        C  0.89250478  0.35962424  0.20685674    -0.13600
C568        C  0.91835868  0.40098130  0.19702658     0.00100
C569        C  0.92929438  0.39685218  0.18014917    -0.12100
C570        C  0.91658434  0.35241185  0.17306720     0.02600
C571        C  0.89070447  0.31081638  0.18280538    -0.11500
H572        H  0.88420935  0.36291941  0.22000376     0.08100
H573        H  0.94826449  0.42876091  0.17241864     0.05700
H574        H  0.87995471  0.27620086  0.17713154     0.05500
O575        O  0.07410291  0.47415757  0.07362951    -0.82400
C576        C  0.94155555  0.27978130  0.06915594     0.97000
O577        O  0.92980630  0.31152566  0.06772238    -0.71500
O578        O  0.96045630  0.36880356  0.09286321    -0.75100
Al579      Al  0.96883767  0.38024551  0.06962428     1.49000
C580        C  0.98880564  0.38855866  0.10492256     0.92200
O581        O  0.07513797  0.36731615  0.09321461    -0.81300
O582        O  0.08666453  0.39474736  0.04384859    -0.74900
Al583      Al  0.07172309  0.41924466  0.08307892     1.90100
O584        O  0.07295522  0.33200832  0.06892755    -0.73900
O585        O  0.99428915  0.34554609  0.03624494    -0.73800
O586        O  0.98204024  0.28827884  0.06420934    -0.79400
O587        O  0.96834646  0.39121175  0.04634723    -0.77600
O588        O  0.02441401  0.38097241  0.06901441    -1.13800
O589        O  0.99736724  0.44879701  0.07179107    -0.73000
C590        C  0.04038907  0.48113174  0.06968439     0.97800
C591        C  0.08420182  0.33984782  0.08446382     0.94100
Al592      Al  0.03262956  0.34307596  0.05445790     1.55600
O593        O  0.03269230  0.41567208  0.10215822    -0.77600
C594        C  0.97480036  0.37048020  0.03402337     0.98300
C595        C  0.12402144  0.42240831  0.05217533     0.93200
O596        O  0.12188086  0.43113987  0.06773330    -0.82900
O597        O  0.66544792  0.02029378  0.20285008    -0.82400
C598        C  0.70889946  0.05091053  0.27239896     0.97000
O599        O  0.73723907  0.05318953  0.26087982    -0.71500
O600        O  0.69486788  0.97237141  0.24464029    -0.75100
Al601      Al  0.72563225  0.03622485  0.23719841     1.49000
C602        C  0.66036260  0.93710958  0.23747439     0.92200
O603        O  0.57969831  0.96706703  0.23961246    -0.81300
O604        O  0.64759811  0.10376014  0.22909876    -0.74900
Al605      Al  0.62508746  0.99507740  0.22197788     1.90100
O606        O  0.59561208  0.03396060  0.25269844    -0.73900
O607        O  0.72711837  0.13046234  0.24560636    -0.73800
O608        O  0.67402408  0.05592682  0.26870652    -0.79400
O609        O  0.76103874  0.09979463  0.22983862    -0.77600
O610        O  0.67068823  0.03630952  0.23585374    -1.13800
O611        O  0.72681919  0.01941474  0.21377520    -0.73000
C612        C  0.70660662  0.02610467  0.20116842     0.97800
C613        C  0.56777735  0.98995767  0.24959429     0.94100
Al614      Al  0.66211594  0.07771984  0.24814501     1.55600
O615        O  0.63823285  0.94338140  0.22534857    -0.77600
C616        C  0.75961140  0.13569887  0.23526305     0.98300
C617        C  0.61377383  0.07970027  0.21897920     0.93200
O618        O  0.60073493  0.03627943  0.21616930    -0.82900
O619        O  0.99617798  0.69579018  0.87122619    -0.82400
C620        C  0.03311434  0.72450258  0.94142087     0.97000
O621        O  0.06188355  0.72722714  0.93002363    -0.71500
O622        O  0.01968769  0.64553098  0.91383577    -0.75100
Al623      Al  0.05183690  0.70987281  0.90647302     1.49000
C624        C  0.98602596  0.61057360  0.90608774     0.92200
O625        O  0.90604013  0.64070898  0.90711523    -0.81300
O626        O  0.97449226  0.77772346  0.89732044    -0.74900
Al627      Al  0.95345235  0.66949329  0.88992577     1.90100
O628        O  0.92047103  0.70744238  0.91996366    -0.73900
O629        O  0.05241493  0.80308359  0.91505714    -0.73800
O630        O  0.99733414  0.72791742  0.93750536    -0.79400
O631        O  0.08781561  0.77383536  0.89924197    -0.77600
O632        O  0.99725003  0.71006090  0.90439734    -1.13800
O633        O  0.05513672  0.69284772  0.88327638    -0.73000
C634        C  0.03704748  0.70016696  0.87023077     0.97800
C635        C  0.89273196  0.66375743  0.91646841     0.94100
Al636      Al  0.98732321  0.75077687  0.91660805     1.55600
O637        O  0.96635638  0.61782994  0.89341397    -0.77600
C638        C  0.08547094  0.80917902  0.90485672     0.98300
C639        C  0.94081937  0.75302123  0.88717394     0.93200
O640        O  0.92969690  0.71038189  0.88392357    -0.82900
C641        C  0.47828212  0.42616436  0.44170683     0.02600
C642        C  0.46710582  0.43097456  0.45878361    -0.13600
C643        C  0.44330054  0.39047316  0.46921984     0.00100
C644        C  0.43228037  0.34570427  0.46292527    -0.12100
C645        C  0.44332752  0.34000941  0.44620219     0.02600
C646        C  0.46543421  0.38011770  0.43551181    -0.11500
H647        H  0.47762142  0.46587425  0.46407347     0.08100
H648        H  0.41459669  0.31481665  0.47118978     0.05700
H649        H  0.47255607  0.37544455  0.42232693     0.05500
C650        C  0.54779469  0.64999453  0.53613492     0.02600
C651        C  0.55929807  0.69481362  0.54303328    -0.13600
C652        C  0.58466879  0.73644861  0.53327205     0.00100
C653        C  0.59905618  0.73309768  0.51673097    -0.12100
C654        C  0.58877296  0.68910047  0.50978400     0.02600
C655        C  0.56243155  0.64738560  0.51938808    -0.11500
H656        H  0.54798355  0.69719606  0.55582464     0.08100
H657        H  0.61835647  0.76515863  0.50910830     0.05700
H658        H  0.55329697  0.61302873  0.51385371     0.05500
O659        O  0.64357371  0.60775226  0.40056648    -0.82400
C660        C  0.69966547  0.80212188  0.40310413     0.97000
O661        O  0.65704651  0.76893536  0.40523987    -0.71500
O662        O  0.63226021  0.71041365  0.38003269    -0.75100
Al663      Al  0.63017372  0.70027081  0.40361630     1.49000
C664        C  0.64109437  0.68992840  0.36812919     0.92200
O665        O  0.74917232  0.71207041  0.37929145    -0.81300
O666        O  0.74035203  0.69528598  0.42873715    -0.74900
Al667      Al  0.69505832  0.66200844  0.39048444     1.90100
O668        O  0.78418097  0.75521291  0.40202598    -0.73900
O669        O  0.69296883  0.73967310  0.43609700    -0.73800
O670        O  0.73339509  0.79541873  0.40712959    -0.79400
O671        O  0.62096283  0.68984649  0.42728783    -0.77600
O672        O  0.68625154  0.70174367  0.40385168    -1.13800
O673        O  0.59123913  0.63143261  0.40174399    -0.73000
C674        C  0.60184172  0.59895780  0.40364278     0.97800
C675        C  0.78641445  0.74288383  0.38690379     0.94100
Al676      Al  0.73329583  0.74316039  0.41738164     1.55600
O677        O  0.65773190  0.66295361  0.37150864    -0.77600
C678        C  0.64942877  0.71109495  0.43930513     0.98300
C679        C  0.74919925  0.66610769  0.42111289     0.93200
O680        O  0.73526019  0.65302386  0.40600736    -0.82900
C681        C  0.42574545  0.30830101  0.69981358     0.02600
C682        C  0.46264675  0.35343391  0.70520755    -0.13600
C683        C  0.47559614  0.39489272  0.69559804     0.00100
C684        C  0.45094282  0.39060772  0.68052884    -0.12100
C685        C  0.41684105  0.34582088  0.67426206     0.02600
C686        C  0.40386548  0.30446717  0.68388550    -0.11500
H687        H  0.48072446  0.35633591  0.71714058     0.08100
H688        H  0.45831288  0.42231747  0.67346353     0.05700
H689        H  0.37734023  0.26981729  0.67898966     0.05500
C690        C  0.26118679  0.09608907  0.60892230     0.02600
C691        C  0.27924995  0.10130896  0.62561569    -0.13600
C692        C  0.26398697  0.06122397  0.63603581     0.00100
C693        C  0.22943834  0.01623351  0.63014001    -0.12100
C694        C  0.21017284  0.01038842  0.61378675     0.02600
C695        C  0.22633530  0.05033470  0.60311395    -0.11500
H696        H  0.30494819  0.13642599  0.63053349     0.08100
H697        H  0.21764218  0.98544348  0.63834444     0.05700
H698        H  0.21252625  0.04570414  0.59026716     0.05500
O699        O  0.32025307  0.35370516  0.53898367    -0.82400
C700        C  0.37487678  0.38639680  0.60748530     0.97000
O701        O  0.40218342  0.38944954  0.59541529    -0.71500
O702        O  0.35529622  0.30804713  0.57958397    -0.75100
Al703      Al  0.38650546  0.37185599  0.57186195     1.49000
C704        C  0.31810475  0.27296345  0.57352932     0.92200
O705        O  0.24038659  0.30933006  0.57792999    -0.81300
O706        O  0.31253233  0.44461268  0.56612962    -0.74900
Al707      Al  0.28362017  0.33309375  0.55920426     1.90100
O708        O  0.26339572  0.37854173  0.59015504    -0.73900
O709        O  0.39399128  0.46796054  0.58154379    -0.73800
O710        O  0.34126997  0.39415242  0.60466548    -0.79400
O711        O  0.42217964  0.43527359  0.56390695    -0.77600
O712        O  0.33265107  0.37420133  0.57190896    -1.13800
O713        O  0.38329103  0.35354396  0.54843591    -0.73000
C714        C  0.36045147  0.35806112  0.53624843     0.97800
C715        C  0.23181394  0.33576126  0.58746695     0.94100
Al716      Al  0.32861660  0.41779309  0.58469872     1.55600
O717        O  0.29352337  0.27954743  0.56250833    -0.77600
C718        C  0.42272670  0.47172175  0.56990992     0.98300
C719        C  0.27718453  0.42020518  0.55648898     0.93200
O720        O  0.26291095  0.37666860  0.55371277    -0.82900
C721        C  0.33790252  0.21535899  0.58684656    -0.09700
C722        C  0.30303931  0.22426319  0.57997928     0.06500
C723        C  0.25452357  0.18805582  0.58117512    -0.03500
C724        C  0.24196231  0.14618916  0.59023615    -0.07900
C725        C  0.27671221  0.13865916  0.59791829     0.05600
C726        C  0.32526954  0.17285832  0.59548625    -0.03000
Br727      Br  0.37588433  0.16272172  0.60302632    -0.02700
H728        H  0.37539198  0.24194895  0.58566444     0.09500
H729        H  0.20447673  0.11994643  0.59178874     0.07500
Br730      Br  0.20284896  0.19374807  0.57186634    -0.03100
C731        C  0.36446986  0.35973578  0.65525287    -0.09700
C732        C  0.39771713  0.34450479  0.65714575     0.06500
C733        C  0.42139031  0.34086466  0.64269795    -0.03500
C734        C  0.41318899  0.35439701  0.62673346    -0.07900
C735        C  0.38156908  0.37202486  0.62479287     0.05600
C736        C  0.35589000  0.37321226  0.63931244    -0.03000
Br737      Br  0.31063937  0.39521916  0.63897947    -0.02700
H738        H  0.34703778  0.36370601  0.66644198     0.09500
H739        H  0.43245882  0.35188329  0.61584541     0.07500
Br740      Br  0.46816633  0.32125966  0.64448464    -0.03100
C741        C  0.56997093  0.66816950  0.47916738    -0.09700
C742        C  0.60422960  0.68804191  0.49210804     0.06500
C743        C  0.65285023  0.71286466  0.48769659    -0.03500
C744        C  0.66645748  0.71969328  0.47054214    -0.07900
C745        C  0.63231963  0.70189370  0.45735651     0.05600
C746        C  0.58331330  0.67462134  0.46193921    -0.03000
Br747      Br  0.53176734  0.64654243  0.44581490    -0.02700
H748        H  0.53245489  0.64922706  0.48248117     0.09500
H749        H  0.70415621  0.73928846  0.46756133     0.07500
Br750      Br  0.70200197  0.73785147  0.50476238    -0.03100
C751        C  0.47421729  0.57113530  0.53768213    -0.09700
C752        C  0.51647248  0.60538566  0.54560726     0.06500
C753        C  0.52729608  0.59609860  0.56212978    -0.03500
C754        C  0.49599635  0.55278595  0.57026187    -0.07900
C755        C  0.45425963  0.51843584  0.56204770     0.05600
C756        C  0.44342229  0.52810914  0.54570067    -0.03000
Br757      Br  0.38657162  0.48398472  0.53372714    -0.02700
H758        H  0.46504694  0.57794483  0.52514697     0.09500
H759        H  0.50480157  0.54543230  0.58276301     0.07500
Br760      Br  0.58556601  0.63954746  0.57361772    -0.03100
C761        C  0.54495787  0.47216782  0.42127676    -0.09700
C762        C  0.50635486  0.46890100  0.43061956     0.06500
C763        C  0.49597218  0.50631585  0.42907324    -0.03500
C764        C  0.52573862  0.54688755  0.41932407    -0.07900
C765        C  0.56622209  0.55150234  0.41087625     0.05600
C766        C  0.57427511  0.51229486  0.41136468    -0.03000
Br767      Br  0.62378200  0.50982824  0.39863391    -0.02700
H768        H  0.55314625  0.44361087  0.42193765     0.09500
H769        H  0.51770876  0.57550404  0.41871525     0.07500
Br770      Br  0.44081320  0.50365205  0.43932975    -0.03100
C771        C  0.38504197  0.39254573  0.48910148    -0.09700
C772        C  0.42782694  0.39243193  0.48673563     0.06500
C773        C  0.44878867  0.38267620  0.50064825    -0.03500
C774        C  0.42625728  0.37176311  0.51650979    -0.07900
C775        C  0.38218446  0.36973126  0.51892150     0.05600
C776        C  0.36200497  0.38134640  0.50495843    -0.03000
Br777      Br  0.30291753  0.38183799  0.50606101    -0.02700
H778        H  0.36820517  0.39896352  0.47831209     0.09500
H779        H  0.44313907  0.36395613  0.52692220     0.07500
Br780      Br  0.50727089  0.38170604  0.49829480    -0.03100
C781        C  0.90758223  0.36445168  0.14269982    -0.09700
C782        C  0.93008310  0.35182205  0.15518891     0.06500
C783        C  0.97187134  0.35085374  0.15102530    -0.03500
C784        C  0.99147316  0.36419784  0.13467357    -0.07900
C785        C  0.96960218  0.37818226  0.12233959     0.05600
C786        C  0.92679367  0.37741771  0.12637648    -0.03000
Br787      Br  0.89517086  0.39768255  0.11061106    -0.02700
H788        H  0.87620140  0.36668807  0.14597355     0.09500
H789        H  0.02368771  0.36338459  0.13154549     0.07500
Br790      Br  0.00436999  0.33385880  0.16752276    -0.03100
C791        C  0.78002711  0.21842753  0.22752934    -0.09700
C792        C  0.79396439  0.18372929  0.22830579     0.06500
C793        C  0.83715167  0.19361049  0.22023438    -0.03500
C794        C  0.86403979  0.23643475  0.21130163    -0.07900
C795        C  0.84896502  0.27012704  0.21000574     0.05600
C796        C  0.80641791  0.26075032  0.21829314    -0.03000
Br797      Br  0.77957694  0.30162692  0.21591662    -0.02700
H798        H  0.74680539  0.21144935  0.23335929     0.09500
H799        H  0.89692137  0.24333878  0.20517953     0.07500
Br800      Br  0.86222171  0.15086092  0.22088027    -0.03100
C801        C  0.92683430  0.20053765  0.07897672    -0.09700
C802        C  0.91017131  0.23321923  0.07785770     0.06500
C803        C  0.86872870  0.22321282  0.08724152    -0.03500
C804        C  0.84560852  0.18174824  0.09725850    -0.07900
C805        C  0.86314396  0.14992332  0.09852969     0.05600
C806        C  0.90461159  0.16012644  0.08932777    -0.03000
Br807      Br  0.93609056  0.12340656  0.09163379    -0.02700
H808        H  0.95903791  0.20744486  0.07237768     0.09500
H809        H  0.81378471  0.17447799  0.10421929     0.07500
Br810      Br  0.84235727  0.26481418  0.08783767    -0.03100
C811        C  0.74128407  0.07121743  0.15547237    -0.09700
C812        C  0.78168488  0.06666194  0.15323892     0.06500
C813        C  0.79885272  0.05193281  0.16701408    -0.03500
C814        C  0.77416910  0.03947977  0.18245521    -0.07900
C815        C  0.73187976  0.04112831  0.18454838     0.05600
C816        C  0.71638414  0.05892817  0.17094788    -0.03000
Br817      Br  0.66194301  0.06768805  0.17222338    -0.02700
H818        H  0.72772921  0.08221882  0.14484961     0.09500
H819        H  0.78772035  0.02736797  0.19273416     0.07500
Br820      Br  0.85503849  0.04655264  0.16504507    -0.03100
C821        C  0.90818740  0.38929535  0.99790422    -0.09700
C822        C  0.93545622  0.39069653  0.98386507     0.06500
C823        C  0.97545333  0.38519119  0.98628101    -0.03500
C824        C  0.98758476  0.37825688  0.00269732    -0.07900
C825        C  0.96015795  0.37654852  0.01684208     0.05600
C826        C  0.92005802  0.38229562  0.01431583    -0.03000
Br827      Br  0.87743064  0.37694985  0.03235021    -0.02700
H828        H  0.87644851  0.39196039  0.99598609     0.09500
H829        H  0.01860028  0.37424042  0.00441368     0.07500
Br830      Br  0.01308484  0.38479129  0.96743423    -0.03100
C831        C  0.90604439  0.48105227  0.91976585    -0.09700
C832        C  0.93782217  0.47331961  0.92955653     0.06500
C833        C  0.98661854  0.50915537  0.92969419    -0.03500
C834        C  0.00153596  0.55267437  0.92144182    -0.07900
C835        C  0.96934158  0.56131582  0.91234362     0.05600
C836        C  0.92127014  0.52403192  0.91103504    -0.03000
Br837      Br  0.87324649  0.52950493  0.89859397    -0.02700
H838        H  0.86856361  0.45406059  0.91934302     0.09500
H839        H  0.03879299  0.58020141  0.92223502     0.07500
Br840      Br  0.03555966  0.50070707  0.94009819    -0.03100
C841        C  0.08332102  0.57684536  0.03579760    -0.09700
C842        C  0.07368414  0.61054190  0.04320365     0.06500
C843        C  0.05173010  0.60119609  0.05938633    -0.03500
C844        C  0.04057538  0.55880463  0.06802797    -0.07900
C845        C  0.05161249  0.52575440  0.06076516     0.05600
C846        C  0.07248916  0.53485580  0.04438687    -0.03000
Br847      Br  0.08470504  0.49005558  0.03259039    -0.02700
H848        H  0.09963272  0.58339596  0.02330336     0.09500
H849        H  0.02367432  0.55184328  0.08041122     0.07500
Br850      Br  0.03494943  0.64460156  0.06978108    -0.03100
C851        C  0.06779174  0.69238928  0.96191207    -0.09700
C852        C  0.04146777  0.71560881  0.95924369     0.06500
C853        C  0.02456025  0.72949187  0.97356561    -0.03500
C854        C  0.03527482  0.72099863  0.99003702    -0.07900
C855        C  0.06230434  0.69856946  0.99253269     0.05600
C856        C  0.07847517  0.68413130  0.97831351    -0.03000
Br857      Br  0.11895179  0.65689399  0.98059721    -0.02700
H858        H  0.08093072  0.68118479  0.95115786     0.09500
H859        H  0.02394062  0.73344914  0.00095699     0.07500
Br860      Br  0.99028660  0.76352317  0.97170419    -0.03100
C861        C  0.62033915  0.73481455  0.34732270    -0.09700
C862        C  0.63201817  0.69878151  0.35022764     0.06500
C863        C  0.63484006  0.67321791  0.33598485    -0.03500
C864        C  0.62420265  0.68269207  0.31966550    -0.07900
C865        C  0.61043061  0.71709621  0.31699297     0.05600
C866        C  0.60947182  0.74393768  0.33099770    -0.03000
Br867      Br  0.58966437  0.79058479  0.32889215    -0.02700
H868        H  0.61858683  0.75563023  0.35788023     0.09500
H869        H  0.62502498  0.66172587  0.30897285     0.07500
Br870      Br  0.65053076  0.62334864  0.33758629    -0.03100
C871        C  0.65628187  0.83204759  0.26061715    -0.09700
C872        C  0.60703716  0.80310914  0.26348180     0.06500
C873        C  0.57571029  0.81673329  0.25622696    -0.03500
C874        C  0.59388042  0.85875289  0.24668305    -0.07900
C875        C  0.64314381  0.88864480  0.24442597     0.05600
C876        C  0.67445443  0.87448246  0.25123468    -0.03000
Br877      Br  0.74216080  0.91110856  0.24777035    -0.02700
H878        H  0.68077632  0.82168112  0.26576214     0.09500
H879        H  0.56940696  0.86961484  0.24189088     0.07500
Br880      Br  0.50815603  0.78243003  0.26031703    -0.03100
C881        C  0.69229499  0.90262925  0.37969514    -0.09700
C882        C  0.74061379  0.93354792  0.37576182     0.06500
C883        C  0.77451421  0.92148255  0.38128662    -0.03500
C884        C  0.76014626  0.88006754  0.39080380    -0.07900
C885        C  0.71179295  0.84854072  0.39480740     0.05600
C886        C  0.67756374  0.86041285  0.38903097    -0.03000
Br887      Br  0.61032319  0.82114092  0.39306005    -0.02700
H888        H  0.66582549  0.91141817  0.37547541     0.09500
H889        H  0.78733639  0.87178225  0.39452618     0.07500
Br890      Br  0.84059423  0.95779707  0.37494479    -0.03100
C891        C  0.70646423  0.04327151  0.32085549    -0.09700
C892        C  0.73153986  0.01893257  0.32354217     0.06500
C893        C  0.74715860  0.00351231  0.30941583    -0.03500
C894        C  0.73936619  0.01436810  0.29292732    -0.07900
C895        C  0.71579871  0.04034146  0.29016591     0.05600
C896        C  0.69814370  0.05379873  0.30439119    -0.03000
Br897      Br  0.66551759  0.08952612  0.30258849    -0.02700
H898        H  0.69502087  0.05589489  0.33170064     0.09500
H899        H  0.75218135  0.00269809  0.28220890     0.07500
Br900      Br  0.78233495  0.97067201  0.31199053    -0.03100
C901        C  0.35416521  0.19567834  0.72667835    -0.09700
C902        C  0.39005168  0.18652201  0.73241332     0.06500
C903        C  0.43790078  0.21900560  0.72751961    -0.03500
C904        C  0.44807675  0.25755511  0.71683376    -0.07900
C905        C  0.41208620  0.26572421  0.71078526     0.05600
C906        C  0.36475090  0.23480049  0.71613089    -0.03000
Br907      Br  0.31341619  0.24546552  0.71015034    -0.02700
H908        H  0.31731125  0.17183557  0.73018019     0.09500
H909        H  0.48471848  0.28127231  0.71302733     0.07500
Br910      Br  0.49214187  0.21365080  0.73420877    -0.03100
C911        C  0.25759408  0.06918149  0.66703661    -0.09700
C912        C  0.28273593  0.06466916  0.65333296     0.06500
C913        C  0.31886118  0.05368279  0.65642282    -0.03500
C914        C  0.32764469  0.04484789  0.67305200    -0.07900
C915        C  0.30092102  0.04695831  0.68683368     0.05600
C916        C  0.26642286  0.06076612  0.68372721    -0.03000
Br917      Br  0.22708704  0.06519979  0.70119284    -0.02700
H918        H  0.22915832  0.07688962  0.66462408     0.09500
H919        H  0.35518831  0.03569702  0.67516758     0.07500
Br920      Br  0.35544233  0.04826471  0.63818632    -0.03100
C921        C  0.23463288  0.99995397  0.81396606    -0.09700
C922        C  0.26520468  0.02693573  0.82722077     0.06500
C923        C  0.31415118  0.05706264  0.82379984    -0.03500
C924        C  0.33113579  0.06164406  0.80711181    -0.07900
C925        C  0.30013749  0.03658183  0.79352339     0.05600
C926        C  0.25134332  0.00430240  0.79726223    -0.03000
Br927      Br  0.20433345  0.96483694  0.78062281    -0.02700
H928        H  0.19694618  0.97663691  0.81652701     0.09500
H929        H  0.36876881  0.08571969  0.80476179     0.07500
Br930      Br  0.35931904  0.09250411  0.84150749    -0.03100
C931        C  0.18964041  0.91334776  0.88223802    -0.09700
C932        C  0.17142097  0.94430628  0.87991250     0.06500
C933        C  0.12696228  0.93205422  0.88728823    -0.03500
C934        C  0.10190701  0.88983520  0.89660474    -0.07900
C935        C  0.11879844  0.85766907  0.89819808     0.05600
C936        C  0.16376260  0.87027120  0.89113256    -0.03000
Br937      Br  0.19236909  0.83094718  0.89333628    -0.02700
H938        H  0.22406810  0.92247132  0.87693412     0.09500
H939        H  0.06733923  0.88064209  0.90173107     0.07500
Br940      Br  0.09535044  0.96794518  0.88342319    -0.03100
C941        C  0.16521994  0.83122190  0.75839354    -0.09700
C942        C  0.18770234  0.80757996  0.76534458     0.06500
C943        C  0.23606971  0.82470354  0.76171846    -0.03500
C944        C  0.26149792  0.86550213  0.75174836    -0.07900
C945        C  0.23990945  0.89065146  0.74521435     0.05600
C946        C  0.19073368  0.87226493  0.74828924    -0.03000
Br947      Br  0.15614097  0.90052034  0.73877205    -0.02700
H948        H  0.12782313  0.81787521  0.76092982     0.09500
H949        H  0.29919664  0.87890408  0.74987103     0.07500
Br950      Br  0.27031014  0.79609584  0.77128417    -0.03100
C951        C  0.13156804  0.73055046  0.83576349    -0.09700
C952        C  0.10960827  0.73794752  0.82168596     0.06500
C953        C  0.06571647  0.73616809  0.82385511    -0.03500
C954        C  0.04327632  0.72461832  0.83977913    -0.07900
C955        C  0.06372083  0.71430106  0.85380730     0.05600
C956        C  0.10944483  0.71900455  0.85172841    -0.03000
Br957      Br  0.14375596  0.70807691  0.86945997    -0.02700
H958        H  0.16501860  0.73105873  0.83405557     0.09500
H959        H  0.00892694  0.72240038  0.84099864     0.07500
Br960      Br  0.03313931  0.74497415  0.80504216    -0.03100
C961        C  0.89882665  0.46050235  0.20892666    -0.09700
C962        C  0.93342001  0.44910511  0.20384400     0.06500
C963        C  0.98163486  0.48529575  0.20348453    -0.03500
C964        C  0.99442967  0.53182395  0.20818500    -0.07900
C965        C  0.96016509  0.54374948  0.21360874     0.05600
C966        C  0.91166207  0.50729442  0.21371705    -0.03000
Br967      Br  0.86071987  0.51851987  0.21929382    -0.04500
H968        H  0.86145792  0.43306617  0.20871508     0.09500
H969        H  0.03199941  0.55856342  0.20801043     0.07500
Br970      Br  0.03188174  0.47295483  0.19719613    -0.03100
C971        C  0.81317619  0.68329000  0.21043523    -0.09700
C972        C  0.78114482  0.63378625  0.20901885     0.06500
C973        C  0.79432243  0.60204850  0.21609534    -0.03500
C974        C  0.83808891  0.61989377  0.22457163    -0.07900
C975        C  0.87093274  0.66918864  0.22546805     0.05600
C976        C  0.85777032  0.70110708  0.21842214    -0.03000
Br977      Br  0.89818337  0.76929934  0.21979671    -0.02700
H978        H  0.80360615  0.70823716  0.20519162     0.09500
H979        H  0.84744468  0.59501035  0.22981607     0.07500
Br980      Br  0.75645731  0.53400862  0.21292638    -0.03100
C981        C  0.00152601  0.77182596  0.17883153    -0.09700
C982        C  0.02431163  0.74486610  0.18116263     0.06500
C983        C  0.03376855  0.72485960  0.16658084    -0.03500
C984        C  0.02132289  0.73288404  0.15030405    -0.07900
C985        C  0.99923578  0.76035309  0.14808237     0.05600
C986        C  0.98925381  0.77977577  0.16255100    -0.03000
Br987      Br  0.96253717  0.82081057  0.16058653    -0.02700
H988        H  0.99347050  0.78729187  0.18974159     0.09500
H989        H  0.03081697  0.71930776  0.13920046     0.07500
Br990      Br  0.06680965  0.68944292  0.16760813    -0.03100
C991        C  0.43518763  0.93936532  0.25301174    -0.09700
C992        C  0.42825622  0.93601822  0.27077602     0.06500
C993        C  0.46718255  0.94392353  0.28135160    -0.03500
C994        C  0.51258953  0.96118262  0.27427591    -0.07900
C995        C  0.51930636  0.96643457  0.25664843     0.05600
C996        C  0.47964238  0.95256922  0.24595201    -0.03000
Br997      Br  0.48416426  0.95228772  0.22160324    -0.02700
H998        H  0.40641713  0.93298461  0.24445117     0.09500
H999        H  0.54266618  0.96979898  0.28253446     0.07500
Br1000     Br  0.46078740  0.92827336  0.30519750    -0.03100
C1001       C  0.19246117  0.79229962  0.24969400    -0.09700
C1002       C  0.16511985  0.81376021  0.24580688     0.06500
C1003       C  0.18082584  0.86061016  0.25175089    -0.03500
C1004       C  0.22284542  0.88480404  0.26140847    -0.07900
C1005       C  0.24982594  0.86308859  0.26550918     0.05600
C1006       C  0.23402748  0.81614162  0.25957215    -0.03000
Br1007     Br  0.26517950  0.78109577  0.26575869    -0.02700
H1008       H  0.18025618  0.75580366  0.24569227     0.09500
H1009       H  0.23473171  0.92103220  0.26565980     0.07500
Br1010     Br  0.14736074  0.89395822  0.24653946    -0.03100
C1011       C  0.86913169  0.80994953  0.38148677    -0.09700
C1012       C  0.83394599  0.76186433  0.37889192     0.06500
C1013       C  0.84680444  0.73117006  0.37056387    -0.03500
C1014       C  0.89388914  0.74845550  0.36537220    -0.07900
C1015       C  0.92935191  0.79645229  0.36793557     0.05600
C1016       C  0.91620892  0.82759553  0.37583409    -0.03000
Br1017     Br  0.95954421  0.89481351  0.37830096    -0.02700
H1018       H  0.85985608  0.83400017  0.38788748     0.09500
H1019       H  0.90304988  0.72376035  0.35942402     0.07500
Br1020     Br  0.80308895  0.66419175  0.36704008    -0.03100
C1021       C  0.01527839  0.81116350  0.30752834    -0.09700
C1022       C  0.02880453  0.79158934  0.32080988     0.06500
C1023       C  0.03629127  0.75313652  0.31715918    -0.03500
C1024       C  0.02741522  0.73322848  0.30067052    -0.07900
C1025       C  0.01182263  0.75149844  0.28741712     0.05600
C1026       C  0.00742011  0.79224447  0.29097918    -0.03000
Br1027     Br  0.98928569  0.82382208  0.27438544    -0.02700
H1028       H  0.00952512  0.84083296  0.31019894     0.09500
H1029       H  0.03262282  0.70312604  0.29825530     0.07500
Br1030     Br  0.05644015  0.72519727  0.33441193    -0.03100
C1031       C  0.44568600  0.23253318  0.42728871    -0.09700
C1032       C  0.39849381  0.19603856  0.43022149     0.06500
C1033       C  0.36675243  0.20725768  0.43855615    -0.03500
C1034       C  0.38205580  0.25444346  0.44322467    -0.07900
C1035       C  0.42901124  0.29115683  0.44013142     0.05600
C1036       C  0.46137336  0.27967502  0.43242396    -0.03000
Br1037     Br  0.52765411  0.32599068  0.42944943    -0.02700
H1038       H  0.47042700  0.22429972  0.42088718     0.09500
H1039       H  0.35677806  0.26266717  0.44919809     0.07500
Br1040     Br  0.30103677  0.16099504  0.44277670    -0.03100
C1041       C  0.13915324  0.85665995  0.37953693    -0.09700
C1042       C  0.10886708  0.87505873  0.37596053     0.06500
C1043       C  0.12242461  0.92144589  0.38181598    -0.03500
C1044       C  0.16452845  0.94791051  0.39116661    -0.07900
C1045       C  0.19566164  0.93031695  0.39460877     0.05600
C1046       C  0.18217798  0.88366191  0.38864776    -0.03000
Br1047     Br  0.22063798  0.85456096  0.39200399    -0.02700
H1048       H  0.12956082  0.82123875  0.37501353     0.09500
H1049       H  0.17388301  0.98375317  0.39506548     0.07500
Br1050     Br  0.08809140  0.95329102  0.37576014    -0.03100
C1051       C  0.32288189  0.95138849  0.34759982    -0.09700
C1052       C  0.35426473  0.00051412  0.35074552     0.06500
C1053       C  0.37680220  0.03058196  0.33658551    -0.03500
C1054       C  0.36864108  0.01103058  0.32008647    -0.07900
C1055       C  0.33832297  0.96185069  0.31714589     0.05600
C1056       C  0.31499201  0.93202193  0.33113841    -0.03000
Br1057     Br  0.27509068  0.86389420  0.32885981    -0.02700
H1058       H  0.30470854  0.92724290  0.35807439     0.09500
H1059       H  0.38708353  0.03434165  0.30943408     0.07500
Br1060     Br  0.41985184  0.09825947  0.33847856    -0.03100
C1061       C  0.64729700  0.81949715  0.53905813    -0.09700
C1062       C  0.59909417  0.78447843  0.54018359     0.06500
C1063       C  0.56616395  0.79730139  0.54636560    -0.03500
C1064       C  0.58216877  0.84451218  0.55158974    -0.07900
C1065       C  0.63066528  0.87986731  0.55043037     0.05600
C1066       C  0.66333866  0.86671411  0.54377126    -0.03000
Br1067     Br  0.73073924  0.90952277  0.54064375    -0.02700
H1068       H  0.67284706  0.81000914  0.53421203     0.09500
H1069       H  0.55641786  0.85355197  0.55652987     0.07500
Br1070     Br  0.49886996  0.75280020  0.54694209    -0.03100
C1071       C  0.68939632  0.07763789  0.48980598    -0.09700
C1072       C  0.66092058  0.09902019  0.48857443     0.06500
C1073       C  0.64402539  0.10937585  0.50357643    -0.03500
C1074       C  0.65804397  0.10097927  0.51944423    -0.07900
C1075       C  0.68833186  0.08155213  0.52071684     0.05600
C1076       C  0.70291300  0.06853765  0.50565187    -0.03000
Br1077     Br  0.74443828  0.04213820  0.50571111    -0.02700
H1078       H  0.70316154  0.07016894  0.47830621     0.09500
H1079       H  0.64518924  0.10980944  0.53087705     0.07500
Br1080     Br  0.60430879  0.13769623  0.50306763    -0.03100
C1081       C  0.52264216  0.06662712  0.41104303    -0.09700
C1082       C  0.48931785  0.07890724  0.41708670     0.06500
C1083       C  0.49793652  0.10268126  0.43299322    -0.03500
C1084       C  0.53965601  0.11521025  0.44218959    -0.07900
C1085       C  0.57384406  0.10461805  0.43590738     0.05600
C1086       C  0.56475806  0.07951307  0.42027868    -0.03000
Br1087     Br  0.60804442  0.06054239  0.41145599    -0.02700
H1088       H  0.51626017  0.04761335  0.39905824     0.09500
H1089       H  0.54563995  0.13372404  0.45427805     0.07500
Br1090     Br  0.45270816  0.11680769  0.44332600    -0.03100
C1091       C  0.49880101  0.99505067  0.56777978    -0.09700
C1092       C  0.53683477  0.99527282  0.55920618     0.06500
C1093       C  0.53086800  0.97968616  0.54210968    -0.03500
C1094       C  0.48752382  0.96476312  0.53376980    -0.07900
C1095       C  0.44933523  0.96489731  0.54219257     0.05600
C1096       C  0.45538246  0.98049123  0.55939899    -0.03000
Br1097     Br  0.40726696  0.98627468  0.57174802    -0.02700
H1098       H  0.50332963  0.00747232  0.58086992     0.09500
H1099       H  0.48340492  0.95235356  0.52068695     0.07500
Br1100     Br  0.58004534  0.97566486  0.52985022    -0.03100
C1101       C  0.33064779  0.99150657  0.48845113    -0.09700
C1102       C  0.35874753  0.97007133  0.49066259     0.06500
C1103       C  0.37913941  0.96129628  0.47626236    -0.03500
C1104       C  0.36981757  0.97227221  0.46000531    -0.07900
C1105       C  0.34016333  0.99216803  0.45756594     0.05600
C1106       C  0.32151294  0.00298283  0.47219774    -0.03000
Br1107     Br  0.28325473  0.03304283  0.47132880    -0.02700
H1108       H  0.31484058  0.99848329  0.49949902     0.09500
H1109       H  0.38545764  0.96427709  0.44916209     0.07500
Br1110     Br  0.41699685  0.93100390  0.47792626    -0.03100
C1111       C  0.12030530  0.33278608  0.60398055    -0.09700
C1112       C  0.08976733  0.28381409  0.60635371     0.06500
C1113       C  0.10588609  0.25167621  0.60261798    -0.03500
C1114       C  0.15244406  0.26906870  0.59664550    -0.07900
C1115       C  0.18354624  0.31838749  0.59449937     0.05600
C1116       C  0.16663714  0.35041213  0.59809962    -0.03000
Br1117     Br  0.20281032  0.41854634  0.59469414    -0.02700
H1118       H  0.10796492  0.35762100  0.60688555     0.09500
H1119       H  0.16455359  0.24402805  0.59394638     0.07500
Br1120     Br  0.06672071  0.18435480  0.60641870    -0.03100
C1121       C  0.88042070  0.22134762  0.60206555    -0.09700
C1122       C  0.91128996  0.20292741  0.60406087     0.06500
C1123       C  0.89808644  0.15767149  0.59711138    -0.03500
C1124       C  0.85561146  0.13245763  0.58796714    -0.07900
C1125       C  0.82458954  0.15061206  0.58593279     0.05600
C1126       C  0.83716094  0.19548632  0.59320353    -0.03000
Br1127     Br  0.79779005  0.22398268  0.59100474    -0.02700
H1128       H  0.89012115  0.25606941  0.60735289     0.09500
H1129       H  0.84584409  0.09735448  0.58302113     0.07500
Br1130     Br  0.93423673  0.12633057  0.60098319    -0.03100
C1131       C  0.56459832  0.14073673  0.69443777    -0.09700
C1132       C  0.59837524  0.13651023  0.70448700     0.06500
C1133       C  0.58463774  0.11446389  0.72054577    -0.03500
C1134       C  0.53856756  0.09831453  0.72639234    -0.07900
C1135       C  0.50468458  0.10184058  0.71632238     0.05600
C1136       C  0.51772168  0.12296301  0.70013926    -0.03000
Br1137     Br  0.47345356  0.12915256  0.68563716    -0.02700
H1138       H  0.57454911  0.15720983  0.68197723     0.09500
H1139       H  0.52856019  0.08098186  0.73871978     0.07500
Br1140     Br  0.62492781  0.10038756  0.73439067    -0.03100
C1141       C  0.67756916  0.14438983  0.64361993    -0.09700
C1142       C  0.69148916  0.12549804  0.65697883     0.06500
C1143       C  0.69454080  0.08417583  0.65412595    -0.03500
C1144       C  0.68340671  0.06222296  0.63803327    -0.07900
C1145       C  0.66835438  0.08041722  0.62460731     0.05600
C1146       C  0.66579655  0.12243803  0.62760214    -0.03000
Br1147     Br  0.64410539  0.15128379  0.61113087    -0.02700
H1148       H  0.67375777  0.17540716  0.64593818     0.09500
H1149       H  0.68615829  0.03048197  0.63610848     0.07500
Br1150     Br  0.71050885  0.05475994  0.67214649    -0.03100
C1151       C  0.73984921  0.90912364  0.08391779    -0.09700
C1152       C  0.74719193  0.87641997  0.09326055     0.06500
C1153       C  0.77465305  0.89162580  0.10822282    -0.03500
C1154       C  0.79347426  0.93900807  0.11380080    -0.07900
C1155       C  0.78475661  0.97140540  0.10469942     0.05600
C1156       C  0.75745795  0.95588471  0.08962867    -0.03000
Br1157     Br  0.73899408  0.99497670  0.07708443    -0.02700
H1158       H  0.71915018  0.89785699  0.07230544     0.09500
H1159       H  0.81451343  0.95049334  0.12536819     0.07500
Br1160     Br  0.78914545  0.84979409  0.12083347    -0.03100
C1161       C  0.88687989  0.73288350  0.08816189    -0.09700
C1162       C  0.91043981  0.77566338  0.09760057     0.06500
C1163       C  0.89312019  0.80778901  0.09690760    -0.03500
C1164       C  0.85252067  0.79657868  0.08722728    -0.07900
C1165       C  0.82808811  0.75338917  0.07797212     0.05600
C1166       C  0.84623396  0.72164846  0.07833466    -0.03000
Br1167     Br  0.81893573  0.66391189  0.06499300    -0.02700
H1168       H  0.90068927  0.70853805  0.08819247     0.09500
H1169       H  0.83915823  0.82130047  0.08741149     0.07500
Br1170     Br  0.92274175  0.86677255  0.10953844    -0.03100
C1171       C  0.71342871  0.65013345  0.12683174    -0.09700
C1172       C  0.67942785  0.66447822  0.12412343     0.06500
C1173       C  0.65139128  0.66386153  0.13808012    -0.03500
C1174       C  0.65823558  0.64980465  0.15412891    -0.07900
C1175       C  0.69143378  0.63460360  0.15672236     0.05600
C1176       C  0.71919275  0.63475820  0.14285147    -0.03000
Br1177     Br  0.76230464  0.61047297  0.14457158    -0.02700
H1178       H  0.73509622  0.64985445  0.11634706     0.09500
H1179       H  0.63635089  0.64946762  0.16465210     0.07500
Br1180     Br  0.60044917  0.67787298  0.13629257    -0.03100
C1181       C  0.77620202  0.58968417  0.93992872    -0.09700
C1182       C  0.74881538  0.60848661  0.93317099     0.06500
C1183       C  0.76835295  0.64305012  0.92021235    -0.03500
C1184       C  0.81497877  0.65940356  0.91469837    -0.07900
C1185       C  0.84270272  0.64168150  0.92179098     0.05600
C1186       C  0.82286829  0.60586416  0.93423360    -0.03000
Br1187     Br  0.85972466  0.58149303  0.94472083    -0.02700
H1188       H  0.76187408  0.56376583  0.95013672     0.09500
H1189       H  0.83025021  0.68726753  0.90520940     0.07500
Br1190     Br  0.73505025  0.67288283  0.91091314    -0.03100
C1191       C  0.70316515  0.67587431  0.98713804    -0.09700
C1192       C  0.67007013  0.62740420  0.98435912     0.06500
C1193       C  0.64345821  0.59896523  0.99821542    -0.03500
C1194       C  0.65031576  0.61938170  0.01447036    -0.07900
C1195       C  0.68382047  0.66802729  0.01738987     0.05600
C1196       C  0.71041919  0.69640755  0.00336211    -0.03000
Br1197     Br  0.75818632  0.76295741  0.00497822    -0.02700
H1198       H  0.72381442  0.69801448  0.97653056     0.09500
H1199       H  0.62949476  0.59666705  0.02492803     0.07500
Br1200     Br  0.59967703  0.53151796  0.99597932    -0.03100
C1201       C  0.20715373  0.48852841  0.04829519    -0.09700
C1202       C  0.17163415  0.44111501  0.04470444     0.06500
C1203       C  0.18471101  0.40969653  0.03722665    -0.03500
C1204       C  0.23251076  0.42542008  0.03401046    -0.07900
C1205       C  0.26822869  0.47283411  0.03740760     0.05600
C1206       C  0.25514459  0.50485026  0.04442567    -0.03000
Br1207     Br  0.30053311  0.57115245  0.04832076    -0.02700
H1208       H  0.19750138  0.51277207  0.05429635     0.09500
H1209       H  0.24192943  0.40019635  0.02871716     0.07500
Br1210     Br  0.13997669  0.34375920  0.03227779    -0.03100
C1211       C  0.52124405  0.56250878  0.06014507    -0.09700
C1212       C  0.53057918  0.60730181  0.06649011     0.06500
C1213       C  0.49465167  0.61983819  0.06446275    -0.03500
C1214       C  0.45324142  0.58996500  0.05515703    -0.07900
C1215       C  0.44543228  0.54674814  0.04796710     0.05600
C1216       C  0.47913414  0.53221069  0.05117391    -0.03000
Br1217     Br  0.46871709  0.47054496  0.04435542    -0.02700
H1218       H  0.54726468  0.55119476  0.06182703     0.09500
H1219       H  0.42735772  0.60132686  0.05314168     0.07500
Br1220     Br  0.49876666  0.67725446  0.07352720    -0.03100
C1221       C  0.29419442  0.15462212  0.87388106    -0.09700
C1222       C  0.24553456  0.12182527  0.87245209     0.06500
C1223       C  0.21227082  0.13619055  0.87660591    -0.03500
C1224       C  0.22830606  0.18272959  0.88267765    -0.07900
C1225       C  0.27736450  0.21575179  0.88421326     0.05600
C1226       C  0.31052918  0.20109752  0.87947058    -0.03000
Br1227     Br  0.37902209  0.24025325  0.88068505    -0.02700
H1228       H  0.31993671  0.14379907  0.87058314     0.09500
H1229       H  0.20239141  0.19319010  0.88607174     0.07500
Br1230     Br  0.14521877  0.09483406  0.87316738    -0.03100
C1231       C  0.53473343  0.50079173  0.94273059    -0.09700
C1232       C  0.57039963  0.53979787  0.93370251     0.06500
C1233       C  0.55924943  0.55108792  0.91759337    -0.03500
C1234       C  0.51364746  0.52236539  0.91059474    -0.07900
C1235       C  0.47847375  0.48337844  0.91968511     0.05600
C1236       C  0.48911004  0.47290593  0.93591970    -0.03000
Br1237     Br  0.44314214  0.41949996  0.94899482    -0.02700
H1238       H  0.54258547  0.49160512  0.95510375     0.09500
H1239       H  0.50540772  0.53083928  0.89816643     0.07500
Br1240     Br  0.60336067  0.60691641  0.90519021    -0.03100
C1241       C  0.36015500  0.46171831  0.96265651    -0.09700
C1242       C  0.33194681  0.41153120  0.96153003     0.06500
C1243       C  0.32220098  0.38432645  0.97656502    -0.03500
C1244       C  0.33915084  0.40758464  0.99224437    -0.07900
C1245       C  0.36535090  0.45773518  0.99336977     0.05600
C1246       C  0.37657926  0.48478240  0.97838433    -0.03000
Br1247     Br  0.41054420  0.55334502  0.97902047    -0.02700
H1248       H  0.36906826  0.48331590  0.95126036     0.09500
H1249       H  0.32870491  0.38657090  0.00381641     0.07500
Br1250     Br  0.28181287  0.31600657  0.97697184    -0.03100
C1251       C  0.11698830  0.56746647  0.76394579    -0.09700
C1252       C  0.06844566  0.53468566  0.76681008     0.06500
C1253       C  0.04030256  0.54999495  0.77544184    -0.03500
C1254       C  0.06034121  0.59778160  0.78029196    -0.07900
C1255       C  0.10856612  0.63100396  0.77709228     0.05600
C1256       C  0.13737718  0.61517921  0.76924964    -0.03000
Br1257     Br  0.20473678  0.65618226  0.76619564    -0.02700
H1258       H  0.13902081  0.55595142  0.75741416     0.09500
H1259       H  0.03771956  0.60932883  0.78635053     0.07500
Br1260     Br  0.97342295  0.50886719  0.77973377    -0.03100
C1261       C  0.82885789  0.28846537  0.72704126    -0.09700
C1262       C  0.85974387  0.27069382  0.73069042     0.06500
C1263       C  0.84787547  0.22519366  0.72395418    -0.03500
C1264       C  0.80660670  0.19943042  0.71392209    -0.07900
C1265       C  0.77657055  0.21792436  0.71020384     0.05600
C1266       C  0.78835878  0.26314990  0.71683410    -0.03000
Br1267     Br  0.75304286  0.29446655  0.71119531    -0.02700
H1268       H  0.83705511  0.32349873  0.73158855     0.09500
H1269       H  0.79783387  0.16455723  0.70899117     0.07500
Br1270     Br  0.88599611  0.19579839  0.72750594    -0.03100
C1271       C  0.99127010  0.28375419  0.68655929    -0.09700
C1272       C  0.01845701  0.33365167  0.68917370     0.06500
C1273       C  0.03775259  0.36370465  0.67478723    -0.03500
C1274       C  0.02958341  0.34350269  0.65848638    -0.07900
C1275       C  0.00276015  0.29386146  0.65605471     0.05600
C1276       C  0.98358242  0.26383047  0.67023312    -0.03000
Br1277     Br  0.94959111  0.19540637  0.66809815    -0.02700
H1278       H  0.97618931  0.25973256  0.69728272     0.09500
H1279       H  0.04503731  0.36670961  0.64756519     0.07500
Br1280     Br  0.07591181  0.43228271  0.67596300    -0.03100
C1281       C  0.04190107  0.31953483  0.81783424    -0.09700
C1282       C  0.00822849  0.31484897  0.82998425     0.06500
C1283       C  0.97127803  0.32345457  0.82512512    -0.03500
C1284       C  0.96660695  0.33282204  0.80804112    -0.07900
C1285       C  0.99876132  0.33460556  0.79560155     0.05600
C1286       C  0.03798992  0.32982411  0.80088716    -0.03000
Br1287     Br  0.08899948  0.33820325  0.78618912    -0.02700
H1288       H  0.07084570  0.31363558  0.82143665     0.09500
H1289       H  0.93733458  0.33821667  0.80447260     0.07500
Br1290     Br  0.92734730  0.32446151  0.84137070    -0.03100
C1291       C  0.18670946  0.33687820  0.88006712    -0.09700
C1292       C  0.18777990  0.33738251  0.89792183     0.06500
C1293       C  0.14525474  0.32288295  0.90699599    -0.03500
C1294       C  0.10274562  0.30917767  0.89806051    -0.07900
C1295       C  0.10140765  0.30803176  0.88005779     0.05600
C1296       C  0.14428887  0.32149271  0.87110670    -0.03000
Br1297     Br  0.14779180  0.31527783  0.84682014    -0.02700
H1298       H  0.21911048  0.34671962  0.87296444     0.09500
H1299       H  0.07054503  0.29927935  0.90526080     0.07500
Br1300     Br  0.14379119  0.32269397  0.93144497    -0.03100
C1301       C  0.21618389  0.40189283  0.76302917    -0.09700
C1302       C  0.24144163  0.44793906  0.77023405     0.06500
C1303       C  0.22437300  0.47978040  0.76782755    -0.03500
C1304       C  0.18212633  0.46502075  0.75877193    -0.07900
C1305       C  0.15587139  0.41858666  0.75176080     0.05600
C1306       C  0.17401615  0.38715208  0.75369546    -0.03000
Br1307     Br  0.14409355  0.32447913  0.74361021    -0.02700
H1308       H  0.22959721  0.37745280  0.76455592     0.09500
H1309       H  0.16913744  0.48991790  0.75765493     0.07500
Br1310     Br  0.25616712  0.54315529  0.77737271    -0.03100
C1311       C  0.35714204  0.40290670  0.84246466    -0.09700
C1312       C  0.34117648  0.41958164  0.85613548     0.06500
C1313       C  0.31503597  0.44288072  0.85249613    -0.03500
C1314       C  0.30771105  0.45101640  0.83555713    -0.07900
C1315       C  0.32584622  0.43639548  0.82206537     0.05600
C1316       C  0.34981311  0.41120918  0.82558840    -0.03000
Br1317     Br  0.37329423  0.38760452  0.80773731    -0.02700
H1318       H  0.37623433  0.38395785  0.84488085     0.09500
H1319       H  0.28924261  0.47047239  0.83290294     0.07500
Br1320     Br  0.28715713  0.46372953  0.86969236    -0.03100
C1321       C  0.50917520  0.45253197  0.71948165    -0.09700
C1322       C  0.51122691  0.44303342  0.70218389     0.06500
C1323       C  0.54556181  0.48011012  0.69174136    -0.03500
C1324       C  0.57482739  0.52597026  0.69863190    -0.07900
C1325       C  0.57237158  0.53512281  0.71599513     0.05600
C1326       C  0.53977702  0.49715474  0.72652969    -0.03000
Br1327     Br  0.53267440  0.50228969  0.75068450    -0.02700
H1328       H  0.48284451  0.42508202  0.72768584     0.09500
H1329       H  0.60036099  0.55427316  0.69048802     0.07500
Br1330     Br  0.55691974  0.47008489  0.66842079    -0.03100
C1331       C  0.47796518  0.56764491  0.75190201    -0.09700
C1332       C  0.51409470  0.60123130  0.76262861     0.06500
C1333       C  0.50289264  0.60628571  0.77954419    -0.03500
C1334       C  0.45598462  0.57777081  0.78538220    -0.07900
C1335       C  0.42027542  0.54252836  0.77481267     0.05600
C1336       C  0.43212716  0.53721851  0.75795961    -0.03000
Br1337     Br  0.39019927  0.48511597  0.74326461    -0.02700
H1338       H  0.48631185  0.56260018  0.73892564     0.09500
H1339       H  0.44762768  0.58236329  0.79839417     0.07500
Br1340     Br  0.54982079  0.65185532  0.79495205    -0.03100
C1341       C  0.88055603  0.82724070  0.87977737    -0.09700
C1342       C  0.83665138  0.79186733  0.87318045     0.06500
C1343       C  0.82839697  0.74507008  0.87088826    -0.03500
C1344       C  0.86452481  0.73510305  0.87420640    -0.07900
C1345       C  0.90871760  0.77002540  0.88093858     0.05600
C1346       C  0.91632937  0.81664712  0.88390304    -0.03000
Br1347     Br  0.97385228  0.86771460  0.89344797    -0.02700
H1348       H  0.88730464  0.86342403  0.88146994     0.09500
H1349       H  0.85655782  0.69857837  0.87231982     0.07500
Br1350     Br  0.76749791  0.69214178  0.86416865    -0.03100
C1351       C  0.71081501  0.72952653  0.82412970    -0.09700
C1352       C  0.73202080  0.77918409  0.82635504     0.06500
C1353       C  0.74435585  0.80864769  0.81199259    -0.03500
C1354       C  0.73601774  0.78836166  0.79569313    -0.07900
C1355       C  0.71611401  0.73860909  0.79327725     0.05600
C1356       C  0.70297979  0.70897374  0.80786796    -0.03000
Br1357     Br  0.67617274  0.64075054  0.80704346    -0.02700
H1358       H  0.70232936  0.70676849  0.83520853     0.09500
H1359       H  0.74625865  0.81209503  0.78484674     0.07500
Br1360     Br  0.77647217  0.87701084  0.81400726    -0.03100
C1361       C  0.47495309  0.97162750  0.74875715    -0.09700
C1362       C  0.44087201  0.97130775  0.75998540     0.06500
C1363       C  0.43651161  0.95247821  0.77643026    -0.03500
C1364       C  0.46714827  0.93589396  0.78150455    -0.07900
C1365       C  0.50283136  0.93836671  0.77049356     0.05600
C1366       C  0.50601576  0.95595035  0.75385419    -0.03000
Br1367     Br  0.55485285  0.96441391  0.73797534    -0.02700
H1368       H  0.47906261  0.98634073  0.73607678     0.09500
H1369       H  0.46389456  0.92206184  0.79428344     0.07500
Br1370     Br  0.38892664  0.94760893  0.79218482    -0.03100
C1371       C  0.58621747  0.78321839  0.75419903    -0.09700
C1372       C  0.63284420  0.80307821  0.74761785     0.06500
C1373       C  0.66491649  0.85242239  0.75039638    -0.03500
C1374       C  0.65005582  0.88017928  0.75956795    -0.07900
C1375       C  0.60356574  0.85994388  0.76612612     0.05600
C1376       C  0.57162436  0.81091077  0.76338933    -0.03000
Br1377     Br  0.50863242  0.77916069  0.77297039    -0.02700
H1378       H  0.56115913  0.74534827  0.75273715     0.09500
H1379       H  0.67484767  0.91793440  0.76148537     0.07500
Br1380     Br  0.72887360  0.88471304  0.74168455    -0.03100
C1381       C  0.72552666  0.89818768  0.58812191    -0.09700
C1382       C  0.74518566  0.94332922  0.59591537     0.06500
C1383       C  0.78081915  0.95679318  0.60834167    -0.03500
C1384       C  0.79508528  0.92413550  0.61320629    -0.07900
C1385       C  0.77491854  0.87864483  0.60546826     0.05600
C1386       C  0.74047906  0.86613100  0.59259089    -0.03000
Br1387     Br  0.71030895  0.80474004  0.58148075    -0.02700
H1388       H  0.69792922  0.88759573  0.57861188     0.09500
H1389       H  0.82115258  0.93375314  0.62329248     0.07500
Br1390     Br  0.80804157  0.01753808  0.61969951    -0.03100
C1391       C  0.76987668  0.76998772  0.68379854    -0.09700
C1392       C  0.72001699  0.74684636  0.68622867     0.06500
C1393       C  0.69040011  0.73689390  0.67170907    -0.03500
C1394       C  0.71085165  0.75041581  0.65553988    -0.07900
C1395       C  0.76036838  0.77387113  0.65328878     0.05600
C1396       C  0.79006040  0.78362503  0.66754982    -0.03000
Br1397     Br  0.85828554  0.81822152  0.66558177    -0.02700
H1398       H  0.79358516  0.77824541  0.69460469     0.09500
H1399       H  0.68787626  0.74335093  0.64457456     0.07500
Br1400     Br  0.62196691  0.70606526  0.67250109    -0.03100
C1401       C  0.96121960  0.54605744  0.70198381    -0.09700
C1402       C  0.91171902  0.52745345  0.70159174     0.06500
C1403       C  0.88105739  0.48028168  0.70706694    -0.03500
C1404       C  0.90043597  0.45331711  0.71349548    -0.07900
C1405       C  0.95004763  0.47236256  0.71402848     0.05600
C1406       C  0.98052266  0.51898668  0.70805046    -0.03000
Br1407     Br  0.04879122  0.54923329  0.70918721    -0.02700
H1408       H  0.98510352  0.58229928  0.69773093     0.09500
H1409       H  0.87679204  0.41747120  0.71816270     0.07500
Br1410     Br  0.81304197  0.45067060  0.70529859    -0.03100
C1411       C  0.85231740  0.66927406  0.71612168    -0.09700
C1412       C  0.83010187  0.62350917  0.70866266     0.06500
C1413       C  0.78141625  0.59214266  0.71179103    -0.03500
C1414       C  0.75586316  0.60637058  0.72234129    -0.07900
C1415       C  0.77754592  0.65232509  0.72983864     0.05600
C1416       C  0.82660093  0.68398243  0.72657097    -0.03000
Br1417     Br  0.86109185  0.74724611  0.73611174    -0.02700
H1418       H  0.88984576  0.69356411  0.71385788     0.09500
H1419       H  0.71815963  0.58174320  0.72409008     0.07500
Br1420     Br  0.74741969  0.53048977  0.70097604    -0.03100
C1421       C  0.85434384  0.18220597  0.89120285    -0.09700
C1422       C  0.82982228  0.13518953  0.88497269     0.06500
C1423       C  0.85283107  0.11902070  0.87385527    -0.03500
C1424       C  0.90011330  0.15057380  0.86895958    -0.07900
C1425       C  0.92459963  0.19761078  0.87539710     0.05600
C1426       C  0.90148191  0.21317470  0.88671226    -0.03000
Br1427     Br  0.93159586  0.27759918  0.89534421    -0.02700
H1428       H  0.83639657  0.19518241  0.89943880     0.09500
H1429       H  0.91720889  0.13905483  0.85971960     0.07500
Br1430     Br  0.81944732  0.05631110  0.86389385    -0.03100
C1431       C  0.75404550  0.23203129  0.92706315    -0.09700
C1432       C  0.76842039  0.19751043  0.92787430     0.06500
C1433       C  0.81551646  0.21226239  0.93351757    -0.03500
C1434       C  0.84677131  0.26012318  0.93737956    -0.07900
C1435       C  0.83240420  0.29427474  0.93662958     0.05600
C1436       C  0.78532259  0.27989259  0.93169025    -0.03000
Br1437     Br  0.76140033  0.32345365  0.93217690    -0.02700
H1438       H  0.71820941  0.22174118  0.92293807     0.09500
H1439       H  0.88275143  0.27077376  0.94147530     0.07500
Br1440     Br  0.84179780  0.17080072  0.93632083    -0.03100
C1441       C  0.68516629  0.85011877  0.88187569    -0.09700
C1442       C  0.73435345  0.86801607  0.87975974     0.06500
C1443       C  0.76677228  0.91369943  0.88643031    -0.03500
C1444       C  0.74970026  0.94091612  0.89445748    -0.07900
C1445       C  0.70056255  0.92398829  0.89582669     0.05600
C1446       C  0.66813855  0.87757265  0.88985151    -0.03000
Br1447     Br  0.60050736  0.84939455  0.89275437    -0.02700
H1448       H  0.65985291  0.81477465  0.87713400     0.09500
H1449       H  0.77510296  0.97666728  0.89883646     0.07500
Br1450     Br  0.83460714  0.94316736  0.88350471    -0.03100
C1451       C  0.64115793  0.01287349  0.81870319    -0.09700
C1452       C  0.61610142  0.96294136  0.81669558     0.06500
C1453       C  0.60124094  0.93391096  0.83127692    -0.03500
C1454       C  0.60953150  0.95488059  0.84747870    -0.07900
C1455       C  0.63301362  0.00489300  0.84958414     0.05600
C1456       C  0.65026216  0.03405788  0.83493516    -0.03000
Br1457     Br  0.68340225  0.10269351  0.83593850    -0.02700
H1458       H  0.65206643  0.03548403  0.80752104     0.09500
H1459       H  0.59704801  0.93174334  0.85851827     0.07500
Br1460     Br  0.56621034  0.86538910  0.82969147    -0.03100
C1461       C  0.38452751  0.19635091  0.93804889    -0.09700
C1462       C  0.43357950  0.21672708  0.94059953     0.06500
C1463       C  0.46350421  0.26631615  0.93855326    -0.03500
C1464       C  0.44401566  0.29455583  0.93349012    -0.07900
C1465       C  0.39460113  0.27408542  0.93081980     0.05600
C1466       C  0.36473239  0.22410977  0.93326327    -0.03000
Br1467     Br  0.29681764  0.18946661  0.92957433    -0.02700
H1468       H  0.36130855  0.15822255  0.93984927     0.09500
H1469       H  0.46750013  0.33262772  0.93175139     0.07500
Br1470     Br  0.53047819  0.29689898  0.94328661    -0.03100
C1471       C  0.57727275  0.12797709  0.91336896    -0.09700
C1472       C  0.55855629  0.07839170  0.91160978     0.06500
C1473       C  0.51337679  0.04716722  0.91877810    -0.03500
C1474       C  0.48927520  0.06580072  0.92808953    -0.07900
C1475       C  0.50922760  0.11536131  0.93054629     0.05600
C1476       C  0.55346188  0.14654482  0.92281072    -0.03000
Br1477     Br  0.58602323  0.21459455  0.92620388    -0.02700
H1478       H  0.61219359  0.15265277  0.90825556     0.09500
H1479       H  0.45495765  0.04134121  0.93367290     0.07500
Br1480     Br  0.48233263  0.97890428  0.91620070    -0.03100
C1481       C  0.56943123  0.82215937  0.02693616    -0.09700
C1482       C  0.57315757  0.86080394  0.03667899     0.06500
C1483       C  0.59709007  0.87155361  0.05248480    -0.03500
C1484       C  0.61648968  0.84419609  0.05815739    -0.07900
C1485       C  0.61454665  0.80704446  0.04817696     0.05600
C1486       C  0.59022343  0.79553356  0.03251371    -0.03000
Br1487     Br  0.58268248  0.74280572  0.01882058    -0.02700
H1488       H  0.55094075  0.81317263  0.01481591     0.09500
H1489       H  0.63465288  0.85310738  0.07032145     0.07500
Br1490     Br  0.60930291  0.92586818  0.06629750    -0.03100
C1491       C  0.55649766  0.92965011  0.97480483    -0.09700
C1492       C  0.57843507  0.96080131  0.98855000     0.06500
C1493       C  0.62070886  0.00439729  0.98586412    -0.03500
C1494       C  0.64054862  0.01614396  0.96951455    -0.07900
C1495       C  0.61917604  0.98465158  0.95561494     0.05600
C1496       C  0.57621641  0.94085597  0.95846600    -0.03000
Br1497     Br  0.54306993  0.89264954  0.94127950    -0.02700
H1498       H  0.52456651  0.89544908  0.97696022     0.09500
H1499       H  0.67324520  0.04989525  0.96776392     0.07500
Br1500     Br  0.65405172  0.04740312  0.00436599    -0.03100
C1501       C  0.86398689  0.17402992  0.39313596    -0.09700
C1502       C  0.89990023  0.20753414  0.38243819     0.06500
C1503       C  0.90459818  0.19379592  0.36585908    -0.03500
C1504       C  0.87390358  0.14674394  0.36037310    -0.07900
C1505       C  0.83723769  0.11327539  0.37100131     0.05600
C1506       C  0.83225306  0.12769110  0.38751243    -0.03000
Br1507     Br  0.78001344  0.08817360  0.40236404    -0.02700
H1508       H  0.85919861  0.18465691  0.40577625     0.09500
H1509       H  0.87819831  0.13644096  0.34761597     0.07500
Br1510     Br  0.95265502  0.23746160  0.35046935    -0.03100
C1511       C  0.81147697  0.28147120  0.42838632    -0.09700
C1512       C  0.84819669  0.27124786  0.43146812     0.06500
C1513       C  0.83732504  0.22903108  0.44024049    -0.03500
C1514       C  0.79044692  0.19743232  0.44514276    -0.07900
C1515       C  0.75347065  0.20740275  0.44216684     0.05600
C1516       C  0.76466127  0.25057579  0.43395480    -0.03000
Br1517     Br  0.71867863  0.27075406  0.43084130    -0.02700
H1518       H  0.81930355  0.31370898  0.42160513     0.09500
H1519       H  0.78280035  0.16441746  0.45130395     0.07500
Br1520     Br  0.88372280  0.21016202  0.44495499    -0.03100
C1521       C  0.12757052  0.59226847  0.27847666    -0.09700
C1522       C  0.11203072  0.54792766  0.27029902     0.06500
C1523       C  0.08150380  0.53537750  0.25611668    -0.03500
C1524       C  0.06675043  0.56666204  0.25040408    -0.07900
C1525       C  0.08188485  0.61063286  0.25857468     0.05600
C1526       C  0.11281264  0.62380623  0.27261890    -0.03000
Br1527     Br  0.13265887  0.68264891  0.28465230    -0.02700
H1528       H  0.15005994  0.60167115  0.28968433     0.09500
H1529       H  0.04231314  0.55608806  0.23977765     0.07500
Br1530     Br  0.05532365  0.47407235  0.24512004    -0.03100
C1531       C  0.03389871  0.40737076  0.31954166    -0.09700
C1532       C  0.08340336  0.43651004  0.31753167     0.06500
C1533       C  0.11255976  0.45348441  0.33205232    -0.03500
C1534       C  0.09232165  0.44124032  0.34824876    -0.07900
C1535       C  0.04266171  0.41233662  0.35052905     0.05600
C1536       C  0.01329121  0.39490107  0.33584420    -0.03000
Br1537     Br  0.94537542  0.35355995  0.33689369    -0.02700
H1538       H  0.01116029  0.39478604  0.30836528     0.09500
H1539       H  0.11590705  0.45545484  0.35916432     0.07500
Br1540     Br  0.18004969  0.49644194  0.33047110    -0.03100
C1541       C  0.30478166  0.21648259  0.36747428    -0.09700
C1542       C  0.25812994  0.20646267  0.37120174     0.06500
C1543       C  0.22663607  0.16268527  0.37917893    -0.03500
C1544       C  0.24257455  0.13099547  0.38357893    -0.07900
C1545       C  0.28914107  0.14107863  0.37969990     0.05600
C1546       C  0.32015821  0.18422570  0.37132643    -0.03000
Br1547     Br  0.38500945  0.20327375  0.36571432    -0.02700
H1548       H  0.32972475  0.24993237  0.36142263     0.09500
H1549       H  0.21838959  0.09817216  0.39014229     0.07500
Br1550     Br  0.16093901  0.14262064  0.38353969    -0.03100
C1551       C  0.13072290  0.26663318  0.38488355    -0.09700
C1552       C  0.17454715  0.30285300  0.37857268     0.06500
C1553       C  0.18776176  0.35083596  0.38199032    -0.03500
C1554       C  0.15634235  0.36176599  0.39068035    -0.07900
C1555       C  0.11134535  0.32557940  0.39643497     0.05600
C1556       C  0.09939329  0.27720609  0.39374491    -0.03000
Br1557     Br  0.04095864  0.22271748  0.40134052    -0.02700
H1558       H  0.12026041  0.22956377  0.38258294     0.09500
H1559       H  0.16713079  0.39898740  0.39273826     0.07500
Br1560     Br  0.24931266  0.40272580  0.37577889    -0.03100
C1561       C  0.49241413  0.55218973  0.25830085    -0.09700
C1562       C  0.44284321  0.53066863  0.26029869     0.06500
C1563       C  0.42319684  0.55764209  0.26693008    -0.03500
C1564       C  0.45363472  0.60526268  0.27190886    -0.07900
C1565       C  0.50319557  0.62630261  0.26993490     0.05600
C1566       C  0.52247266  0.59964283  0.26291653    -0.03000
Br1567     Br  0.58989819  0.62646831  0.25970759    -0.02700
H1568       H  0.50790486  0.53218103  0.25284272     0.09500
H1569       H  0.43882058  0.62554308  0.27763838     0.07500
Br1570     Br  0.35585666  0.53035144  0.27035166    -0.03100
C1571       C  0.52330797  0.51857671  0.21413623    -0.09700
C1572       C  0.50651441  0.46935038  0.21591394     0.06500
C1573       C  0.53808953  0.45217704  0.21234942    -0.03500
C1574       C  0.58519226  0.48413933  0.20721355    -0.07900
C1575       C  0.60139630  0.53314675  0.20541864     0.05600
C1576       C  0.56990645  0.55017268  0.20891064    -0.03000
Br1577     Br  0.58887436  0.61653653  0.20665039    -0.02700
H1578       H  0.50021124  0.53294758  0.21705270     0.09500
H1579       H  0.60873783  0.47049119  0.20404012     0.07500
Br1580     Br  0.51802138  0.38543167  0.21288970    -0.03100
C1581       C  0.24242137  0.41441640  0.26772772    -0.09700
C1582       C  0.23846990  0.40770026  0.25000363     0.06500
C1583       C  0.20781890  0.41875276  0.24095443    -0.03500
C1584       C  0.18066544  0.43485809  0.24979627    -0.07900
C1585       C  0.18449046  0.44164289  0.26765641     0.05600
C1586       C  0.21695958  0.43223351  0.27650306    -0.03000
Br1587     Br  0.23248387  0.44718089  0.30018866    -0.02700
H1588       H  0.26710531  0.40748612  0.27475555     0.09500
H1589       H  0.15614819  0.44172704  0.24266425     0.07500
Br1590     Br  0.20035268  0.41031433  0.21671130    -0.03100
C1591       C  0.26548006  0.28211016  0.29455241    -0.09700
C1592       C  0.30510901  0.32764427  0.29149520     0.06500
C1593       C  0.31942074  0.36288072  0.30452472    -0.03500
C1594       C  0.29608468  0.35101350  0.32038200    -0.07900
C1595       C  0.25819815  0.30474236  0.32353956     0.05600
C1596       C  0.24217473  0.27061733  0.31027601    -0.03000
Br1597     Br  0.18931255  0.20696499  0.31325115    -0.02700
H1598       H  0.25279858  0.25472177  0.28474995     0.09500
H1599       H  0.30892207  0.37741931  0.33053305     0.07500
Br1600     Br  0.36980648  0.42789259  0.30170929    -0.03100
C1601       C  0.24616953  0.86911601  0.03381283    -0.09700
C1602       C  0.24427118  0.87944753  0.05103826     0.06500
C1603       C  0.21202579  0.84302291  0.06195956    -0.03500
C1604       C  0.17983351  0.79813629  0.05533372    -0.07900
C1605       C  0.17994417  0.78797294  0.03794388     0.05600
C1606       C  0.21521648  0.82336761  0.02727217    -0.03000
Br1607     Br  0.22454245  0.81111787  0.00397989    -0.02700
H1608       H  0.27167464  0.89671910  0.02544355     0.09500
H1609       H  0.15337135  0.77162120  0.06376211     0.07500
Br1610     Br  0.20801842  0.85281040  0.08589415    -0.03100
C1611       C  0.14729507  0.91976993  0.08084497    -0.09700
C1612       C  0.18137446  0.94790681  0.09316519     0.06500
C1613       C  0.16892973  0.94098897  0.11047142    -0.03500
C1614       C  0.12236276  0.90731334  0.11514879    -0.07900
C1615       C  0.08866260  0.87688984  0.10293390     0.05600
C1616       C  0.10196480  0.88325812  0.08555047    -0.03000
Br1617     Br  0.06379228  0.83941441  0.06783383    -0.02700
H1618       H  0.15748919  0.92336256  0.06751305     0.09500
H1619       H  0.11315952  0.90354419  0.12856447     0.07500
Br1620     Br  0.21451843  0.97439833  0.12819140    -0.03100
C1621       C  0.51375806  0.01136160  0.04323356    -0.09700
C1622       C  0.49465357  0.96151075  0.04254979     0.06500
C1623       C  0.45236838  0.93204369  0.05175146    -0.03500
C1624       C  0.43012531  0.95253957  0.06106317    -0.07900
C1625       C  0.44808235  0.00217026  0.06111323     0.05600
C1626       C  0.49086933  0.03176483  0.05221692    -0.03000
Br1627     Br  0.52041043  0.10026326  0.05189187    -0.02700
H1628       H  0.54663888  0.03473333  0.03657266     0.09500
H1629       H  0.39680746  0.92907311  0.06747038     0.07500
Br1630     Br  0.41979741  0.86343061  0.05069232    -0.03100
C1631       C  0.38042349  0.07349891  0.98719519    -0.09700
C1632       C  0.42796341  0.11033566  0.98590022     0.06500
C1633       C  0.45344644  0.13318259  0.00075906    -0.03500
C1634       C  0.43072624  0.12041632  0.01658932    -0.07900
C1635       C  0.38222927  0.08503118  0.01799765     0.05600
C1636       C  0.35737919  0.06043578  0.00302172    -0.03000
Br1637     Br  0.29150276  0.01086496  0.00274685    -0.02700
H1638       H  0.36042988  0.05639541  0.97570623     0.09500
H1639       H  0.45112352  0.13903534  0.02782901     0.07500
Br1640     Br  0.51866106  0.18378380  0.99986545    -0.03100
C1641       C  0.54361291  0.06855735  0.20270921    -0.09700
C1642       C  0.58522779  0.09991564  0.21175760     0.06500
C1643       C  0.59362505  0.14648398  0.21564106    -0.03500
C1644       C  0.56023735  0.15972838  0.21078987    -0.07900
C1645       C  0.51789556  0.12726131  0.20244884     0.05600
C1646       C  0.50944364  0.08096560  0.19866580    -0.03000
Br1647     Br  0.45002125  0.03132017  0.18942175    -0.02700
H1648       H  0.53617404  0.03294442  0.19938901     0.09500
H1649       H  0.56740073  0.19564741  0.21352042     0.07500
Br1650     Br  0.64897891  0.19420579  0.22753542    -0.03100
C1651       C  0.44495199  0.15569308  0.14232813    -0.09700
C1652       C  0.41766724  0.12961315  0.15629792     0.06500
C1653       C  0.37822217  0.08366962  0.15375400    -0.03500
C1654       C  0.36702406  0.06415701  0.13735984    -0.07900
C1655       C  0.39494943  0.08951579  0.12322229     0.05600
C1656       C  0.43408950  0.13639538  0.12586408    -0.03000
Br1657     Br  0.47553811  0.17655232  0.10808698    -0.02700
H1658       H  0.47611329  0.19069829  0.14436442     0.09500
H1659       H  0.33668534  0.02840275  0.13577437     0.07500
Br1660     Br  0.34066598  0.04496282  0.17245985    -0.03100
C1661       C  0.42860319  0.26866255  0.23177234    -0.09700
C1662       C  0.38078205  0.25697011  0.22990448     0.06500
C1663       C  0.34997400  0.21616947  0.22004342    -0.03500
C1664       C  0.36787817  0.18998196  0.21176122    -0.07900
C1665       C  0.41645353  0.20374142  0.21262483     0.05600
C1666       C  0.44677820  0.24318091  0.22311879    -0.03000
Br1667     Br  0.51437757  0.26810754  0.22481292    -0.02700
H1668       H  0.45301733  0.29982199  0.23917998     0.09500
H1669       H  0.34366032  0.15913813  0.20416664     0.07500
Br1670     Br  0.28317591  0.19388665  0.21696544    -0.03100
C1671       C  0.13245831  0.27612484  0.11119431    -0.09700
C1672       C  0.17582843  0.28995660  0.10269518     0.06500
C1673       C  0.18799138  0.31995602  0.08838026    -0.03500
C1674       C  0.15694639  0.33496889  0.08270443    -0.07900
C1675       C  0.11416235  0.32175722  0.09128825     0.05600
C1676       C  0.10163283  0.29194180  0.10558446    -0.03000
Br1677     Br  0.04239600  0.27094221  0.11726868    -0.02700
H1678       H  0.12286078  0.25339019  0.12229683     0.09500
H1679       H  0.16702879  0.35850652  0.07181964     0.07500
Br1680     Br  0.24832641  0.34577735  0.07705375    -0.03100
C1681       C  0.27344481  0.17076233  0.10649849    -0.09700
C1682       C  0.27477475  0.20949653  0.09797795     0.06500
C1683       C  0.29082540  0.21801079  0.08082642    -0.03500
C1684       C  0.30392948  0.18749955  0.07259006    -0.07900
C1685       C  0.30318548  0.14948819  0.08135434     0.05600
C1686       C  0.28810367  0.14160574  0.09847618    -0.03000
Br1687     Br  0.28657167  0.09117252  0.11159147    -0.02700
H1688       H  0.26107729  0.16313222  0.11955374     0.09500
H1689       H  0.31657309  0.19464645  0.05955885     0.07500
Br1690     Br  0.30062149  0.27315755  0.06847787    -0.03100
C1691       C  0.33115485  0.34651363  0.17314173    -0.09700
C1692       C  0.29547622  0.33017825  0.18576962     0.06500
C1693       C  0.24850517  0.29453576  0.18129347    -0.03500
C1694       C  0.23810468  0.27771551  0.16448352    -0.07900
C1695       C  0.27355188  0.29491612  0.15187227     0.05600
C1696       C  0.32063494  0.32906900  0.15637500    -0.03000
Br1697     Br  0.37122494  0.35506621  0.13992412    -0.02700
H1698       H  0.36753700  0.37318440  0.17628154     0.09500
H1699       H  0.20170715  0.25157908  0.16111126     0.07500
Br1700     Br  0.19584521  0.26856496  0.19697890    -0.03100
C1701       C  0.09921909  0.89963882  0.59715692    -0.09700
C1702       C  0.11407875  0.86550592  0.59766367     0.06500
C1703       C  0.16085144  0.88013856  0.60363925    -0.03500
C1704       C  0.19104543  0.92746063  0.60851463    -0.07900
C1705       C  0.17641777  0.96141058  0.60774024     0.05600
C1706       C  0.12983358  0.94718080  0.60221180    -0.03000
Br1707     Br  0.10581081  0.99067568  0.60202630    -0.02700
H1708       H  0.06379677  0.88949456  0.59267697     0.09500
H1709       H  0.22685674  0.93814396  0.61281438     0.07500
Br1710     Br  0.18878477  0.83977863  0.60471887    -0.03100
C1711       C  0.20750819  0.78980755  0.54930140    -0.09700
C1712       C  0.17782527  0.80939915  0.55201957     0.06500
C1713       C  0.19650724  0.85893727  0.54911135    -0.03500
C1714       C  0.24230244  0.88653456  0.54264164    -0.07900
C1715       C  0.27110523  0.86667991  0.53929579     0.05600
C1716       C  0.25402869  0.81816848  0.54300970    -0.03000
Br1717     Br  0.29212094  0.78897320  0.53901915    -0.02700
H1718       H  0.19427452  0.75224738  0.55180357     0.09500
H1719       H  0.25577096  0.92419380  0.54018784     0.07500
Br1720     Br  0.16370020  0.89320910  0.55450216    -0.03100
C1721       C  0.88738493  0.80671357  0.59121862    -0.09700
C1722       C  0.84615548  0.77259027  0.59968485     0.06500
C1723       C  0.83317591  0.72391182  0.59838296    -0.03500
C1724       C  0.86275942  0.71090646  0.58960489    -0.07900
C1725       C  0.90489796  0.74534699  0.58154749     0.05600
C1726       C  0.91629289  0.79377996  0.58208937    -0.03000
Br1727     Br  0.97168358  0.84548787  0.57160813    -0.02700
H1728       H  0.89797666  0.84421406  0.59202617     0.09500
H1729       H  0.85269380  0.67350838  0.58911727     0.07500
Br1730     Br  0.77446619  0.67323228  0.60743870    -0.03100
C1731       C  0.98404552  0.68241130  0.63654025    -0.09700
C1732       C  0.96407362  0.65118088  0.62248973     0.06500
C1733       C  0.91969048  0.60843734  0.62471820    -0.03500
C1734       C  0.89706245  0.59815201  0.64059455    -0.07900
C1735       C  0.91767972  0.62897940  0.65455025     0.05600
C1736       C  0.96157779  0.67133177  0.65246651    -0.03000
Br1737     Br  0.99408825  0.71290242  0.67138644    -0.02700
H1738       H  0.01783952  0.71530699  0.63528752     0.09500
H1739       H  0.86419624  0.56452826  0.64232887     0.07500
Br1740     Br  0.88847825  0.56028353  0.60735994    -0.03100
C1741       C  0.85994414  0.67032010  0.43814608    -0.09700
C1742       C  0.84602564  0.62164321  0.43863147     0.06500
C1743       C  0.79850794  0.58729402  0.43456944    -0.03500
C1744       C  0.76654362  0.60215246  0.42940515    -0.07900
C1745       C  0.78071563  0.65092668  0.42891572     0.05600
C1746       C  0.82786047  0.68513343  0.43349421    -0.03000
Br1747     Br  0.85191870  0.75280112  0.43258412    -0.02700
H1748       H  0.89621325  0.69708202  0.44140760     0.09500
H1749       H  0.73048462  0.57560366  0.42581779     0.07500
Br1750     Br  0.77483295  0.52005885  0.43692644    -0.03100
C1751       C  0.98706539  0.68244917  0.48696972    -0.09700
C1752       C  0.95387773  0.63368753  0.48482766     0.06500
C1753       C  0.93135517  0.60577871  0.49924037    -0.03500
C1754       C  0.94163645  0.62686647  0.51545493    -0.07900
C1755       C  0.97404667  0.67612593  0.51773261     0.05600
C1756       C  0.99751142  0.70383860  0.50318524    -0.03000
Br1757     Br  0.04179709  0.77140179  0.50412905    -0.02700
H1758       H  0.00341702  0.70443973  0.47585539     0.09500
H1759       H  0.92364761  0.60447374  0.52632413     0.07500
Br1760     Br  0.88384266  0.53937876  0.49721604    -0.03100
C1761       C  0.92411487  0.45896527  0.42337166    -0.09700
C1762       C  0.96525265  0.47766889  0.41307577     0.06500
C1763       C  0.99476299  0.52795833  0.41219011    -0.03500
C1764       C  0.98281754  0.55795772  0.42149442    -0.07900
C1765       C  0.94193159  0.53874893  0.43185873     0.05600
C1766       C  0.91262355  0.48882322  0.43272799    -0.03000
Br1767     Br  0.85727862  0.45970340  0.44709634    -0.02700
H1768       H  0.90130551  0.42066881  0.42460281     0.09500
H1769       H  0.00544919  0.59634343  0.42063299     0.07500
Br1770     Br  0.05052382  0.55776680  0.39805682    -0.03100
C1771       C  0.27074520  0.49101192  0.54769677    -0.09700
C1772       C  0.24962194  0.44106922  0.54929801     0.06500
C1773       C  0.20074787  0.41165108  0.54504357    -0.03500
C1774       C  0.17536402  0.43213512  0.53858111    -0.07900
C1775       C  0.19673129  0.48154434  0.53650788     0.05600
C1776       C  0.24450321  0.51140219  0.54140117    -0.03000
Br1777     Br  0.27523883  0.57953988  0.53931481    -0.02700
H1778       H  0.30771774  0.51420841  0.55127446     0.09500
H1779       H  0.13813736  0.40916814  0.53519879     0.07500
Br1780     Br  0.16396959  0.34360619  0.54866179    -0.03100
C1781       C  0.09110143  0.59161159  0.53334250    -0.09700
C1782       C  0.09247246  0.55383665  0.54148799     0.06500
C1783       C  0.07614527  0.54260609  0.55850889    -0.03500
C1784       C  0.05813276  0.56873715  0.56685276    -0.07900
C1785       C  0.05582915  0.60563681  0.55841992     0.05600
C1786       C  0.07342088  0.61763984  0.54167367    -0.03000
Br1787     Br  0.07757659  0.67156225  0.52997669    -0.02700
H1788       H  0.10464381  0.60145682  0.52047433     0.09500
H1789       H  0.04516162  0.55973525  0.57980954     0.07500
Br1790     Br  0.07500326  0.49063657  0.57066957    -0.03100
C1791       C  0.08126202  0.41596590  0.48620307    -0.09700
C1792       C  0.09076817  0.46299243  0.48896346     0.06500
C1793       C  0.08338820  0.48723141  0.47548916    -0.03500
C1794       C  0.06768331  0.46459021  0.45964439    -0.07900
C1795       C  0.05961320  0.41801091  0.45669291     0.05600
C1796       C  0.06644743  0.39359837  0.47030251    -0.03000
Br1797     Br  0.05978261  0.33127698  0.46806738    -0.02700
H1798       H  0.08660859  0.39674915  0.49645611     0.09500
H1799       H  0.06253371  0.48409475  0.44945473     0.07500
Br1800     Br  0.09759883  0.55237606  0.47739535    -0.03100
loop_ 
_geom_bond_atom_site_label_1 
_geom_bond_atom_site_label_2 
_geom_bond_distance 
_geom_bond_site_symmetry_2 
_ccdc_geom_bond_type 
C1            C2   1.410       .  A
C1            C6   1.404       .  A
C1         C1782   1.480       .  S
C2            C3   1.404       .  A
C2            H7   1.084       .  S
C3            C4   1.399       .  A
C3         C1792   1.485       .  S
C4            C5   1.397       .  A
C4            H8   1.084       .  S
C5            C6   1.399       .  A
C5         C1775   1.469       .  S
C6            H9   1.083       .  S
C10          C11   1.411       .  A
C10          C15   1.411       .  A
C10        C1765   1.487       .  S
C11          C12   1.407       .  A
C11          H16   1.084       .  S
C12          C13   1.395       .  A
C12        C1752   1.476       .  S
C13          C14   1.396       .  A
C13          H17   1.085       .  S
C14          C15   1.408       .  A
C14        C1742   1.481       .  S
C15          H18   1.083       .  S
O19          C34   1.260   1_455  A
O19         Al27   1.902       .  S
C20        C1755   1.491       .  S
C20          O30   1.258   1_655  A
C20          O21   1.259       .  A
O21         Al23   1.911       .  S
O22          C24   1.262       .  A
O22         Al23   1.889   1_455  S
Al23         O31   1.896       .  S
Al23         O33   1.910       .  S
Al23         O32   1.783   1_655  S
C24        C1785   1.467       .  S
C24          O37   1.267       .  A
O25          C35   1.265       .  A
O25         Al27   1.912       .  S
O26          C39   1.264       .  A
O26         Al36   1.911       .  S
Al27         O40   1.889       .  S
Al27         O37   1.931       .  S
Al27         O32   1.780       .  S
O28          C35   1.259       .  A
O28         Al36   1.888       .  S
O29          C38   1.268       .  A
O29         Al36   1.932   1_655  S
O30         Al36   1.906       .  S
O31          C38   1.265       .  A
O32         Al36   1.771       .  S
O33          C34   1.258       .  A
C34        C1732   1.489       .  S
C35        C1712   1.480       .  S
C38        C1725   1.489       .  S
C39        C1702   1.486       .  S
C39          O40   1.257       .  A
C41          C42   1.410       .  A
C41          C46   1.414       .  A
C41        C1682   1.496       .  S
C42          C43   1.407       .  A
C42          H47   1.082       .  S
C43          C44   1.397       .  A
C43        C1672   1.479       .  S
C44          C45   1.398       .  A
C44          H48   1.085       .  S
C45          C46   1.406       .  A
C45        C1695   1.482       .  S
C46          H49   1.084       .  S
C50          C51   1.412       .  A
C50          C55   1.412       .  A
C50        C1665   1.494       .  S
C51          C52   1.399       .  A
C51          H56   1.083       .  S
C52          C53   1.389       .  A
C52        C1652   1.467       .  S
C53          C54   1.394       .  A
C53          H57   1.085       .  S
C54          C55   1.407       .  A
C54        C1645   1.478       .  S
C55          H58   1.083       .  S
O59          C74   1.273   1_565  A
O59         Al67   1.943       .  S
C60        C1685   1.479       .  S
C60          O70   1.272       .  A
C60          O61   1.262       .  A
O61         Al63   1.889       .  S
O62          C64   1.256       .  A
O62         Al63   1.909       .  S
Al63         O71   1.913       .  S
Al63         O73   1.888       .  S
Al63         O72   1.784       .  S
C64        C1655   1.484       .  S
C64          O77   1.257       .  A
O65          C75   1.263       .  A
O65         Al67   1.912       .  S
O66          C79   1.263       .  A
O66         Al76   1.916   1_565  S
Al67         O80   1.887       .  S
Al67         O77   1.890   1_565  S
Al67         O72   1.774   1_565  S
O68          C75   1.259   1_545  A
O68         Al76   1.885       .  S
O69          C78   1.256       .  A
O69         Al76   1.900       .  S
O70         Al76   1.954       .  S
O71          C78   1.260       .  A
O72         Al76   1.776       .  S
O73          C74   1.263       .  A
C74        C1625   1.486       .  S
C75        C1612   1.466       .  S
C78        C1635   1.488       .  S
C79        C1602   1.465       .  S
C79          O80   1.258       .  A
O81          C96   1.259       .  A
O81         Al89   1.908       .  S
C82        C1692   1.487       .  S
C82          O92   1.261       .  A
C82          O83   1.262       .  A
O83         Al85   1.918       .  S
O84          C86   1.260       .  A
O84         Al85   1.886       .  S
Al85         O93   1.888       .  S
Al85         O95   1.912       .  S
Al85         O94   1.778       .  S
C86        C1662   1.490       .  S
C86          O99   1.270       .  A
O87          C97   1.264       .  A
O87         Al89   1.911       .  S
O88         C101   1.260       .  A
O88         Al98   1.894       .  S
Al89        O102   1.905       .  S
Al89         O99   1.940       .  S
Al89         O94   1.776       .  S
O90          C97   1.266       .  A
O90         Al98   1.920       .  S
O91         C100   1.268       .  A
O91         Al98   1.945       .  S
O92         Al98   1.899       .  S
O93         C100   1.259       .  A
O94         Al98   1.775       .  S
O95          C96   1.262       .  A
C96        C1592   1.491       .  S
C97        C1572   1.488       .  S
C100       C1582   1.479       .  S
C101       C1562   1.466       .  S
C101        O102   1.263       .  A
C103        C104   1.415       .  A
C103        C108   1.414       .  A
C103       C1552   1.497       .  S
C104        C105   1.407       .  A
C104        H109   1.083       .  S
C105        C106   1.394       .  A
C105       C1595   1.481       .  S
C106        C107   1.397       .  A
C106        H110   1.084       .  S
C107        C108   1.411       .  A
C107       C1542   1.492       .  S
C108        H111   1.084       .  S
C112        C113   1.413       .  A
C112        C117   1.412       .  A
C112       C1585   1.499       .  S
C113        C114   1.406       .  A
C113        H118   1.082       .  S
C114        C115   1.395       .  A
C114       C1532   1.476       .  S
C115        C116   1.396       .  A
C115        H119   1.085       .  S
C116        C117   1.407       .  A
C116       C1522   1.476       .  S
C117        H120   1.083       .  S
O121        C136   1.261       .  A
O121       Al129   1.887       .  S
C122       C1555   1.506       .  S
C122        O132   1.258       .  A
C122        O123   1.270       .  A
O123       Al125   1.946       .  S
O124        C126   1.252       .  A
O124       Al125   1.865       .  S
Al125       O133   1.871       .  S
Al125       O135   1.943       .  S
Al125       O134   1.787   1_455  S
C126       C1535   1.490       .  S
C126        O139   1.261   1_455  A
O127        C137   1.265       .  A
O127       Al129   1.912       .  S
O128        C141   1.264       .  A
O128       Al138   1.907       .  S
Al129       O142   1.913       .  S
Al129       O139   1.931       .  S
Al129       O134   1.789       .  S
O130        C137   1.260       .  A
O130       Al138   1.898       .  S
O131        C140   1.259       .  A
O131       Al138   1.917   1_455  S
O132       Al138   1.890   1_455  S
O133        C140   1.252       .  A
O134       Al138   1.784       .  S
O135        C136   1.269   1_455  A
C136       C1762   1.496       .  S
C137       C1502   1.472       .  S
C140       C1795   1.486       .  S
C141       C1512   1.477       .  S
C141        O142   1.262       .  A
C143        C144   1.411       .  A
C143        C148   1.410       .  A
C143       C1622   1.494       .  S
C144        C145   1.402       .  A
C144        H149   1.084       .  S
C145        C146   1.395       .  A
C145       C1492   1.472   1_554  S
C146        C147   1.397       .  A
C146        H150   1.084       .  S
C147        C148   1.409       .  A
C147       C1482   1.485       .  S
C148        H151   1.082       .  S
C152        C153   1.412       .  A
C152        C157   1.411       .  A
C152       C1475   1.491       .  S
C153        C154   1.403       .  A
C153        H158   1.084       .  S
C154        C155   1.395       .  A
C154       C1632   1.472       .  S
C155        C156   1.395       .  A
C155        H159   1.085       .  S
C156        C157   1.405       .  A
C156       C1462   1.474       .  S
C157        H160   1.082       .  S
O161        C176   1.258       .  A
O161       Al169   1.897       .  S
C162       C1495   1.488       .  S
C162        O172   1.262   1_565  A
C162        O163   1.260       .  A
O163       Al165   1.909       .  S
O164        C166   1.260       .  A
O164       Al165   1.894   1_545  S
Al165       O173   1.898       .  S
Al165       O175   1.914       .  S
Al165       O174   1.783   1_565  S
C166       C1472   1.488       .  S
C166        O179   1.267       .  A
O167        C177   1.264       .  A
O167       Al169   1.912       .  S
O168        C181   1.262       .  A
O168       Al178   1.906       .  S
Al169       O182   1.899       .  S
Al169       O179   1.928       .  S
Al169       O174   1.783       .  S
O170        C177   1.259       .  A
O170       Al178   1.899       .  S
O171        C180   1.264       .  A
O171       Al178   1.920   1_565  S
O172       Al178   1.901       .  S
O173        C180   1.261       .  A
O174       Al178   1.776       .  S
O175        C176   1.263   1_565  A
C176       C1455   1.486       .  S
C177       C1432   1.488       .  S
C180       C1445   1.480       .  S
C181       C1422   1.462       .  S
C181        O182   1.261       .  A
C183        C184   1.411       .  A
C183        C188   1.409       .  A
C183       C1412   1.484       .  S
C184        C185   1.407       .  A
C184        H189   1.084       .  S
C185        C186   1.393       .  A
C185       C1735   1.473       .  S
C186        C187   1.393       .  A
C186        H190   1.086       .  S
C187        C188   1.404       .  A
C187       C1402   1.474       .  S
C188        H191   1.083       .  S
C192        C193   1.410       .  A
C192        C197   1.411       .  A
C192       C1722   1.491       .  S
C193        C194   1.402       .  A
C193        H198   1.084       .  S
C194        C195   1.395       .  A
C194       C1385   1.473       .  S
C195        C196   1.397       .  A
C195        H199   1.085       .  S
C196        C197   1.405       .  A
C196       C1395   1.475       .  S
C197        H200   1.083       .  S
C201        C202   1.409       .  A
C201        C206   1.409       .  A
C201       C1375   1.488       .  S
C202        C203   1.408       .  A
C202        H207   1.082       .  S
C203        C204   1.398       .  A
C203       C1365   1.486       .  S
C204        C205   1.397       .  A
C204        H208   1.086       .  S
C205        C206   1.407       .  A
C205       C1452   1.478       .  S
C206        H209   1.084       .  S
C210        C211   1.411       .  A
C210        C215   1.412       .  A
C210       C1442   1.486       .  S
C211        C212   1.404       .  A
C211        H216   1.084       .  S
C212        C213   1.392       .  A
C212       C1342   1.474       .  S
C213        C214   1.389       .  A
C213        H217   1.085       .  S
C214        C215   1.403       .  A
C214       C1352   1.472       .  S
C215        H218   1.083       .  S
O219        C234   1.261       .  A
O219       Al227   1.888       .  S
C220       C1415   1.496       .  S
C220        O230   1.262       .  A
C220        O221   1.267       .  A
O221       Al223   1.930       .  S
O222        C224   1.252       .  A
O222       Al223   1.879       .  S
Al223       O231   1.871       .  S
Al223       O233   1.927       .  S
Al223       O232   1.794       .  S
C224       C1392   1.489       .  S
C224        O237   1.255       .  A
O225        C235   1.266       .  A
O225       Al227   1.922       .  S
O226        C239   1.266       .  A
O226       Al236   1.919       .  S
Al227       O240   1.887       .  S
Al227       O237   1.901       .  S
Al227       O232   1.790       .  S
O228        C235   1.255       .  A
O228       Al236   1.883       .  S
O229        C238   1.254       .  A
O229       Al236   1.906       .  S
O230       Al236   1.889       .  S
O231        C238   1.250       .  A
O232       Al236   1.791       .  S
O233        C234   1.266       .  A
C234       C1372   1.495       .  S
C235       C1325   1.479       .  S
C238       C1355   1.488       .  S
C239       C1332   1.474       .  S
C239        O240   1.259       .  A
C241        C242   1.406       .  A
C241        C246   1.406       .  A
C241       C1302   1.481       .  S
C242        C243   1.407       .  A
C242        H247   1.083       .  S
C243        C244   1.398       .  A
C243       C1335   1.484       .  S
C244        C245   1.397       .  A
C244        H248   1.084       .  S
C245        C246   1.404       .  A
C245       C1315   1.473       .  S
C246        H249   1.084       .  S
C250        C251   1.411       .  A
C250        C255   1.409       .  A
C250       C1295   1.494       .  S
C251        C252   1.406       .  A
C251        H256   1.082       .  S
C252        C253   1.395   1_455  A
C252       C1282   1.479       .  S
C253        C254   1.393       .  A
C253        H257   1.085       .  S
C254        C255   1.402   1_655  A
C254       C1425   1.466       .  S
C255        H258   1.083       .  S
O259        C274   1.257       .  A
O259       Al267   1.869       .  S
C260       C1262   1.500       .  S
C260        O270   1.259       .  A
C260        O261   1.267       .  A
O261       Al263   1.939   1_655  S
O262        C264   1.251       .  A
O262       Al263   1.867       .  S
Al263       O271   1.868       .  S
Al263       O273   1.942       .  S
Al263       O272   1.790       .  S
C264       C1272   1.484       .  S
C264        O277   1.256       .  A
O265        C275   1.261   1_455  A
O265       Al267   1.895       .  S
O266        C279   1.261       .  A
O266       Al276   1.898   1_455  S
Al267       O280   1.898       .  S
Al267       O277   1.905       .  S
Al267       O272   1.788       .  S
O268        C275   1.259       .  A
O268       Al276   1.901       .  S
O269        C278   1.259       .  A
O269       Al276   1.913       .  S
O270       Al276   1.876       .  S
O271        C278   1.250   1_455  A
O272       Al276   1.790   1_455  S
O273        C274   1.268       .  A
C274       C1305   1.492       .  S
C275       C1405   1.464       .  S
C278       C1285   1.483       .  S
C279       C1252   1.469       .  S
C279        O280   1.259       .  A
O281        C296   1.257       .  A
O281       Al289   1.892       .  S
C282       C1312   1.482       .  S
C282        O292   1.257       .  A
C282        O283   1.263       .  A
O283       Al285   1.924       .  S
O284        C286   1.257       .  A
O284       Al285   1.875       .  S
Al285       O293   1.890       .  S
Al285       O295   1.910       .  S
Al285       O294   1.783       .  S
C286       C1292   1.475       .  S
C286        O299   1.266       .  A
O287        C297   1.266       .  A
O287       Al289   1.917       .  S
O288        C301   1.265       .  A
O288       Al298   1.909       .  S
Al289       O302   1.901       .  S
Al289       O299   1.940       .  S
Al289       O294   1.783       .  S
O290        C297   1.255       .  A
O290       Al298   1.877       .  S
O291        C300   1.262       .  A
O291       Al298   1.922       .  S
O292       Al298   1.883       .  S
O293        C300   1.258       .  A
O294       Al298   1.776       .  S
O295        C296   1.261       .  A
C296       C1242   1.481       .  S
C297       C1225   1.480       .  S
C300       C1235   1.466       .  S
C301       C1465   1.483       .  S
C301        O302   1.261       .  A
C303        C304   1.414       .  A
C303        C308   1.416       .  A
C303       C1215   1.494       .  S
C304        C305   1.406       .  A
C304        H309   1.084       .  S
C305        C306   1.392       .  A
C305       C1205   1.481       .  S
C306        C307   1.388       .  A
C306        H310   1.086       .  S
C307        C308   1.404       .  A
C307       C1245   1.472   1_554  S
C308        H311   1.082       .  S
C312        C313   1.406       .  A
C312        C317   1.409       .  A
C312       C1232   1.484       .  S
C313        C314   1.401       .  A
C313        H318   1.084       .  S
C314        C315   1.399       .  A
C314       C1192   1.478       .  S
C315        C316   1.399       .  A
C315        H319   1.084       .  S
C316        C317   1.406       .  A
C316       C1182   1.478       .  S
C317        H320   1.084       .  S
O321        C336   1.259       .  A
O321       Al329   1.887       .  S
C322       C1165   1.493       .  S
C322        O332   1.265       .  A
C322        O323   1.269       .  A
O323       Al325   1.933       .  S
O324        C326   1.253       .  A
O324       Al325   1.882       .  S
Al325       O333   1.882       .  S
Al325       O335   1.928       .  S
Al325       O334   1.789       .  S
C326       C1172   1.485       .  S
C326        O339   1.255       .  A
O327        C337   1.264       .  A
O327       Al329   1.919       .  S
O328        C341   1.269       .  A
O328       Al338   1.927       .  S
Al329       O342   1.892       .  S
Al329       O339   1.897       .  S
Al329       O334   1.782       .  S
O330        C337   1.256       .  A
O330       Al338   1.889       .  S
O331        C340   1.254       .  A
O331       Al338   1.902       .  S
O332       Al338   1.896       .  S
O333        C340   1.252       .  A
O334       Al338   1.787       .  S
O335        C336   1.268       .  A
C336       C1212   1.498       .  S
C337       C1152   1.468       .  S
C340       C1195   1.487       .  S
C341       C1485   1.474       .  S
C341        O342   1.261       .  A
C343        C344   1.411       .  A
C343        C348   1.407       .  A
C343       C1265   1.490       .  S
C344        C345   1.407       .  A
C344        H349   1.084       .  S
C345        C346   1.395       .  A
C345       C1142   1.472       .  S
C346        C347   1.393       .  A
C346        H350   1.084       .  S
C347        C348   1.404       .  A
C347       C1132   1.478       .  S
C348        H351   1.083       .  S
C352        C353   1.408   1_655  A
C352        C357   1.407       .  A
C352       C1122   1.482       .  S
C353        C354   1.401       .  A
C353        H358   1.084       .  S
C354        C355   1.394       .  A
C354       C1112   1.470       .  S
C355        C356   1.395       .  A
C355        H359   1.086       .  S
C356        C357   1.403   1_455  A
C356       C1275   1.471       .  S
C357        H360   1.084       .  S
C361        C362   1.412       .  A
C361        C366   1.407       .  A
C361       C1095   1.487       .  S
C362        C363   1.407       .  A
C362        H367   1.085       .  S
C363        C364   1.398       .  A
C363       C1102   1.483       .  S
C364        C365   1.398       .  A
C364        H368   1.084       .  S
C365        C366   1.400       .  A
C365       C1715   1.474       .  S
C366        H369   1.083       .  S
C370        C371   1.412       .  A
C370        C375   1.413       .  A
C370       C1085   1.492       .  S
C371        C372   1.406       .  A
C371        H376   1.084       .  S
C372        C373   1.394       .  A
C372       C1072   1.479       .  S
C373        C374   1.398       .  A
C373        H377   1.084       .  S
C374        C375   1.411       .  A
C374       C1515   1.492       .  S
C375        H378   1.082       .  S
O379        C394   1.261       .  A
O379       Al387   1.906   1_545  S
C380       C1075   1.480       .  S
C380        O390   1.259       .  A
C380        O381   1.261       .  A
O381       Al383   1.910       .  S
O382        C384   1.261       .  A
O382       Al383   1.887       .  S
Al383       O391   1.897       .  S
Al383       O393   1.905       .  S
Al383       O392   1.780       .  S
C384       C1092   1.472   1_545  S
C384        O397   1.269   1_545  A
O385        C395   1.266       .  A
O385       Al387   1.909       .  S
O386        C399   1.262   1_545  A
O386       Al396   1.905       .  S
Al387       O400   1.908       .  S
Al387       O397   1.942       .  S
Al387       O392   1.776   1_565  S
O388        C395   1.259       .  A
O388       Al396   1.894   1_565  S
O389        C398   1.268       .  A
O389       Al396   1.924       .  S
O390       Al396   1.901       .  S
O391        C398   1.262       .  A
O392       Al396   1.768       .  S
O393        C394   1.258       .  A
C394       C1145   1.487       .  S
C395       C1065   1.485       .  S
C398       C1125   1.479       .  S
C399       C1382   1.465       .  S
C399        O400   1.263       .  A
O401        C416   1.260       .  A
O401       Al409   1.894       .  S
C402       C1045   1.505       .  S
C402        O412   1.259   1_565  A
C402        O403   1.267       .  A
O403       Al405   1.945       .  S
O404        C406   1.253   1_565  A
O404       Al405   1.873       .  S
Al405       O413   1.873       .  S
Al405       O415   1.947   1_565  S
Al405       O414   1.792   1_565  S
C406       C1052   1.496       .  S
C406        O419   1.261       .  A
O407        C417   1.267       .  A
O407       Al409   1.913       .  S
O408        C421   1.261       .  A
O408       Al418   1.898       .  S
Al409       O422   1.898       .  S
Al409       O419   1.931       .  S
Al409       O414   1.788       .  S
O410        C417   1.262       .  A
O410       Al418   1.905       .  S
O411        C420   1.260       .  A
O411       Al418   1.924       .  S
O412       Al418   1.880       .  S
O413        C420   1.253   1_565  A
O414       Al418   1.786       .  S
O415        C416   1.268       .  A
C416       C1082   1.489       .  S
C417       C1545   1.480       .  S
C420       C1105   1.494   1_545  S
C421       C1032   1.471       .  S
C421        O422   1.258       .  A
C423        C424   1.412       .  A
C423        C428   1.416       .  A
C423       C1042   1.497       .  S
C424        C425   1.407       .  A
C424        H429   1.084       .  S
C425        C426   1.400   1_455  A
C425       C1022   1.486       .  S
C426        C427   1.402       .  A
C426        H430   1.084       .  S
C427        C428   1.411   1_655  A
C427       C1015   1.496       .  S
C428        H431   1.083       .  S
C432        C433   1.408       .  A
C432        C437   1.409       .  A
C432       C1005   1.491       .  S
C433        C434   1.411       .  A
C433        H438   1.082       .  S
C434        C435   1.402       .  A
C434        C992   1.496       .  S
C435        C436   1.399       .  A
C435        H439   1.080       .  S
C436        C437   1.406       .  A
C436       C1055   1.486       .  S
C437        H440   1.084       .  S
C441        C442   1.411       .  A
C441        C446   1.406       .  A
C441       C1162   1.487       .  S
C442        C443   1.410       .  A
C442        H447   1.084       .  S
C443        C444   1.396   1_655  A
C443        C985   1.482       .  S
C444        C445   1.401       .  A
C444        H448   1.084       .  S
C445        C446   1.406   1_455  A
C445       C1615   1.490       .  S
C446        H449   1.083       .  S
C450        C451   1.409       .  A
C450        C455   1.413       .  A
C450        C972   1.493       .  S
C451        C452   1.406       .  A
C451        H456   1.082       .  S
C452        C453   1.400       .  A
C452       C1175   1.483       .  S
C453        C454   1.396       .  A
C453        H457   1.086       .  S
C454        C455   1.405       .  A
C454       C1575   1.480       .  S
C455        H458   1.083       .  S
O459        C474   1.262   1_655  A
O459       Al467   1.914       .  S
C460        C982   1.492       .  S
C460        O470   1.258       .  A
C460        O461   1.264       .  A
O461       Al463   1.925       .  S
O462        C464   1.262       .  A
O462       Al463   1.898   1_655  S
Al463       O471   1.897       .  S
Al463       O473   1.913   1_455  S
Al463       O472   1.786       .  S
C464        C975   1.491       .  S
C464        O477   1.270       .  A
O465        C475   1.264       .  A
O465       Al467   1.915       .  S
O466        C479   1.260       .  A
O466       Al476   1.899       .  S
Al467       O480   1.913   1_655  S
Al467       O477   1.938       .  S
Al467       O472   1.780   1_655  S
O468        C475   1.262   1_455  A
O468       Al476   1.897       .  S
O469        C478   1.265       .  A
O469       Al476   1.925       .  S
O470       Al476   1.897       .  S
O471        C478   1.260       .  A
O472       Al476   1.778       .  S
O473        C474   1.260   1_655  A
C474       C1025   1.496       .  S
C475        C965   1.490       .  S
C478       C1002   1.484       .  S
C479       C1525   1.465       .  S
C479        O480   1.262       .  A
C481        C482   1.409       .  A
C481        C486   1.409       .  A
C481        C942   1.481       .  S
C482        C483   1.407       .  A
C482        H487   1.082       .  S
C483        C484   1.396       .  A
C483       C1255   1.481       .  S
C484        C485   1.394       .  A
C484        H488   1.086       .  S
C485        C486   1.403       .  A
C485        C952   1.472       .  S
C486        H489   1.084       .  S
C490        C491   1.409   1_565  A
C490        C495   1.411       .  A
C490        C932   1.489       .  S
C491        C492   1.401       .  A
C491        H496   1.083       .  S
C492        C493   1.396       .  A
C492       C1222   1.473       .  S
C493        C494   1.395       .  A
C493        H497   1.085       .  S
C494        C495   1.405   1_545  A
C494        C922   1.477       .  S
C495        H498   1.083       .  S
O499        C514   1.260       .  A
O499       Al507   1.889       .  S
C500        C945   1.491       .  S
C500        O510   1.260       .  A
C500        O501   1.268       .  A
O501       Al503   1.934   1_565  S
O502        C504   1.247       .  A
O502       Al503   1.869       .  S
Al503       O511   1.868       .  S
Al503       O513   1.931       .  S
Al503       O512   1.788       .  S
C504        C925   1.488       .  S
C504        O517   1.258       .  A
O505        C515   1.268   1_545  A
O505       Al507   1.921       .  S
O506        C519   1.263       .  A
O506       Al516   1.908       .  S
Al507       O520   1.888       .  S
Al507       O517   1.914       .  S
Al507       O512   1.788       .  S
O508        C515   1.261       .  A
O508       Al516   1.895   1_565  S
O509        C518   1.256       .  A
O509       Al516   1.904       .  S
O510       Al516   1.875   1_565  S
O511        C518   1.247       .  A
O512       Al516   1.787       .  S
O513        C514   1.269       .  A
C514        C902   1.500       .  S
C515       C1362   1.477       .  S
C518        C915   1.480       .  S
C519       C1135   1.467       .  S
C519        O520   1.259       .  A
C521        C522   1.410   1_565  A
C521        C526   1.408       .  A
C521        C882   1.488       .  S
C522        C523   1.407       .  A
C522        H527   1.083       .  S
C523        C524   1.397       .  A
C523       C1505   1.486       .  S
C524        C525   1.397       .  A
C524        H528   1.085       .  S
C525        C526   1.405   1_545  A
C525        C892   1.474       .  S
C526        H529   1.084       .  S
C530        C531   1.406       .  A
C530        C535   1.415       .  A
C530        C872   1.489       .  S
C531        C532   1.398       .  A
C531        H536   1.084       .  S
C532        C533   1.393       .  A
C532       C1565   1.465       .  S
C533        C534   1.398       .  A
C533        H537   1.085       .  S
C534        C535   1.411       .  A
C534        C865   1.485       .  S
C535        H538   1.083       .  S
C539        C540   1.406       .  A
C539        C544   1.404       .  A
C539        C842   1.480       .  S
C540        C541   1.404       .  A
C540        H545   1.083       .  S
C541        C542   1.396       .  A
C541        C855   1.473   1_554  S
C542        C543   1.400       .  A
C542        H546   1.083       .  S
C543        C544   1.407       .  A
C543       C1605   1.484       .  S
C544        H547   1.084       .  S
C548        C549   1.415       .  A
C548        C553   1.410       .  A
C548        C832   1.494       .  S
C549        C550   1.408       .  A
C549        H554   1.083       .  S
C550        C551   1.397       .  A
C550       C1435   1.479       .  S
C551        C552   1.390       .  A
C551        H555   1.085       .  S
C552        C553   1.398       .  A
C552        C822   1.468       .  S
C553        H556   1.083       .  S
C557        C558   1.412       .  A
C557        C562   1.408       .  A
C557        C805   1.491       .  S
C558        C559   1.406       .  A
C558        H563   1.083       .  S
C559        C560   1.396       .  A
C559        C812   1.473       .  S
C560        C561   1.393       .  A
C560        H564   1.085   1_545  S
C561        C562   1.404       .  A
C561       C1155   1.479   1_545  S
C562        H565   1.083       .  S
C566        C567   1.410       .  A
C566        C571   1.413       .  A
C566        C795   1.489       .  S
C567        C568   1.403       .  A
C567        H572   1.083       .  S
C568        C569   1.392       .  A
C568        C962   1.474       .  S
C569        C570   1.393       .  A
C569        H573   1.086       .  S
C570        C571   1.404       .  A
C570        C782   1.471       .  S
C571        H574   1.084       .  S
O575        C590   1.260       .  A
O575       Al583   1.892       .  S
C576        C802   1.496       .  S
C576        O586   1.259       .  A
C576        O577   1.266       .  A
O577       Al579   1.932       .  S
O578        C580   1.247       .  A
O578       Al579   1.854       .  S
Al579       O587   1.863       .  S
Al579       O589   1.932       .  S
Al579       O588   1.789   1_655  S
C580        C785   1.469       .  S
C580        O593   1.260   1_655  A
O581        C591   1.264       .  A
O581       Al583   1.913       .  S
O582        C595   1.266       .  A
O582       Al592   1.904       .  S
Al583       O596   1.900       .  S
Al583       O593   1.923       .  S
Al583       O588   1.785       .  S
O584        C591   1.260       .  A
O584       Al592   1.897       .  S
O585        C594   1.261       .  A
O585       Al592   1.922   1_655  S
O586       Al592   1.873   1_655  S
O587        C594   1.249       .  A
O588       Al592   1.784       .  S
O589        C590   1.266   1_655  A
C590        C845   1.478       .  S
C591       C1675   1.464       .  S
C594        C825   1.475       .  S
C595       C1202   1.468       .  S
C595        O596   1.260       .  A
O597        C612   1.257       .  A
O597       Al605   1.887   1_545  S
C598        C895   1.480       .  S
C598        O608   1.254       .  A
C598        O599   1.263       .  A
O599       Al601   1.917       .  S
O600        C602   1.258       .  A
O600       Al601   1.881   1_565  S
Al601       O609   1.875       .  S
Al601       O611   1.918       .  S
Al601       O610   1.785       .  S
C602        C875   1.481       .  S
C602        O615   1.269       .  A
O603        C613   1.260       .  A
O603       Al605   1.888       .  S
O604        C617   1.256       .  A
O604       Al614   1.890       .  S
Al605       O618   1.914   1_565  S
Al605       O615   1.939       .  S
Al605       O610   1.777   1_565  S
O606        C613   1.267   1_545  A
O606       Al614   1.928       .  S
O607        C616   1.271       .  A
O607       Al614   1.945       .  S
O608       Al614   1.879       .  S
O609        C616   1.256       .  A
O610       Al614   1.776       .  S
O611        C612   1.265       .  A
C612        C815   1.486       .  S
C613        C995   1.468       .  S
C616        C792   1.490       .  S
C617       C1642   1.488       .  S
C617        O618   1.264       .  A
O619        C634   1.261   1_655  A
O619       Al627   1.901       .  S
C620        C852   1.481       .  S
C620        O630   1.257   1_455  A
C620        O621   1.261       .  A
O621       Al623   1.907       .  S
O622        C624   1.263   1_455  A
O622       Al623   1.892       .  S
Al623       O631   1.883       .  S
Al623       O633   1.916       .  S
Al623       O632   1.779   1_455  S
C624        C835   1.487       .  S
C624        O637   1.266       .  A
O625        C635   1.262       .  A
O625       Al627   1.901       .  S
O626        C639   1.258       .  A
O626       Al636   1.897       .  S
Al627       O640   1.894       .  S
Al627       O637   1.934       .  S
Al627       O632   1.773       .  S
O628        C635   1.265       .  A
O628       Al636   1.919       .  S
O629        C638   1.270       .  A
O629       Al636   1.936   1_455  S
O630       Al636   1.895       .  S
O631        C638   1.259       .  A
O632       Al636   1.778       .  S
O633        C634   1.261       .  A
C634        C955   1.490       .  S
C635       C1185   1.467       .  S
C638        C935   1.485       .  S
C639       C1345   1.483       .  S
C639        O640   1.262       .  A
C641        C642   1.414       .  A
C641        C646   1.412       .  A
C641        C762   1.497       .  S
C642        C643   1.405       .  A
C642        H647   1.082       .  S
C643        C644   1.392       .  A
C643        C772   1.473       .  S
C644        C645   1.394       .  A
C644        H648   1.085       .  S
C645        C646   1.405       .  A
C645       C1035   1.481       .  S
C646        H649   1.085       .  S
C650        C651   1.407       .  A
C650        C655   1.412       .  A
C650        C752   1.484       .  S
C651        C652   1.404       .  A
C651        H656   1.083       .  S
C652        C653   1.399       .  A
C652       C1062   1.478       .  S
C653        C654   1.395       .  A
C653        H657   1.085       .  S
C654        C655   1.403       .  A
C654        C742   1.479       .  S
C655        H658   1.084       .  S
O659        C674   1.258       .  A
O659       Al667   1.887       .  S
C660        C885   1.499       .  S
C660        O670   1.257       .  A
C660        O661   1.265       .  A
O661       Al663   1.938       .  S
O662        C664   1.254       .  A
O662       Al663   1.875       .  S
Al663       O671   1.885       .  S
Al663       O673   1.935       .  S
Al663       O672   1.794       .  S
C664        C862   1.493       .  S
C664        O677   1.263       .  A
O665        C675   1.263       .  A
O665       Al667   1.905       .  S
O666        C679   1.262       .  A
O666       Al676   1.899       .  S
Al667       O680   1.911       .  S
Al667       O677   1.929       .  S
Al667       O672   1.783       .  S
O668        C675   1.262       .  A
O668       Al676   1.917       .  S
O669        C678   1.265       .  A
O669       Al676   1.929       .  S
O670       Al676   1.873       .  S
O671        C678   1.253       .  A
O672       Al676   1.785       .  S
O673        C674   1.267       .  A
C674        C765   1.496       .  S
C675       C1012   1.482       .  S
C678        C745   1.495       .  S
C679       C1745   1.471       .  S
C679        O680   1.261       .  A
C681        C682   1.408       .  A
C681        C686   1.411       .  A
C681        C905   1.493       .  S
C682        C683   1.409       .  A
C682        H687   1.083       .  S
C683        C684   1.394       .  A
C683       C1322   1.487       .  S
C684        C685   1.396       .  A
C684        H688   1.084       .  S
C685        C686   1.406       .  A
C685        C732   1.471       .  S
C686        H689   1.082       .  S
C690        C691   1.409       .  A
C690        C695   1.410       .  A
C690        C725   1.486       .  S
C691        C692   1.399       .  A
C691        H696   1.086       .  S
C692        C693   1.394       .  A
C692        C912   1.468       .  S
C693        C694   1.397       .  A
C693        H697   1.084   1_545  S
C694        C695   1.405       .  A
C694       C1705   1.478   1_545  S
C695        H698   1.082       .  S
O699        C714   1.256       .  A
O699       Al707   1.892       .  S
C700        C735   1.488       .  S
C700        O710   1.254       .  A
C700        O701   1.264       .  A
O701       Al703   1.922       .  S
O702        C704   1.261       .  A
O702       Al703   1.887       .  S
Al703       O711   1.887       .  S
Al703       O713   1.914       .  S
Al703       O712   1.784       .  S
C704        C722   1.486       .  S
C704        O717   1.265       .  A
O705        C715   1.263       .  A
O705       Al707   1.906       .  S
O706        C719   1.263       .  A
O706       Al716   1.900       .  S
Al707       O720   1.890       .  S
Al707       O717   1.930       .  S
Al707       O712   1.776       .  S
O708        C715   1.258       .  A
O708       Al716   1.890       .  S
O709        C718   1.264       .  A
O709       Al716   1.933       .  S
O710       Al716   1.879       .  S
O711        C718   1.258       .  A
O712       Al716   1.782       .  S
O713        C714   1.263       .  A
C714        C775   1.490       .  S
C715       C1115   1.478       .  S
C718        C755   1.471       .  S
C719       C1772   1.476       .  S
C719        O720   1.259       .  A
C721        C722   1.406       .  A
C721        C726   1.399       .  A
C721        H728   1.085       .  S
C722        C723   1.416       .  A
C723        C724   1.399       .  A
C723       Br730   1.919       .  S
C724        C725   1.403       .  A
C724        H729   1.085       .  S
C725        C726   1.411       .  A
C726       Br727   1.921       .  S
C731        C732   1.399       .  A
C731        C736   1.399       .  A
C731        H738   1.084       .  S
C732        C733   1.404       .  A
C733        C734   1.397       .  A
C733       Br740   1.919       .  S
C734        C735   1.408       .  A
C734        H739   1.083       .  S
C735        C736   1.421       .  A
C736       Br737   1.924       .  S
C741        C742   1.399       .  A
C741        C746   1.402       .  A
C741        H748   1.084       .  S
C742        C743   1.407       .  A
C743        C744   1.399       .  A
C743       Br750   1.920       .  S
C744        C745   1.408       .  A
C744        H749   1.083       .  S
C745        C746   1.423       .  A
C746       Br747   1.920       .  S
C751        C752   1.401       .  A
C751        C756   1.393       .  A
C751        H758   1.082       .  S
C752        C753   1.415       .  A
C753        C754   1.406       .  A
C753       Br760   1.919       .  S
C754        C755   1.402       .  A
C754        H759   1.082       .  S
C755        C756   1.407       .  A
C756       Br757   1.914       .  S
C761        C762   1.406       .  A
C761        C766   1.400       .  A
C761        H768   1.082       .  S
C762        C763   1.414       .  A
C763        C764   1.405       .  A
C763       Br770   1.921       .  S
C764        C765   1.408       .  A
C764        H769   1.080       .  S
C765        C766   1.416       .  A
C766       Br767   1.923       .  S
C771        C772   1.400       .  A
C771        C776   1.402       .  A
C771        H778   1.083       .  S
C772        C773   1.404       .  A
C773        C774   1.396       .  A
C773       Br780   1.919       .  S
C774        C775   1.409       .  A
C774        H779   1.082       .  S
C775        C776   1.421       .  A
C776       Br777   1.924       .  S
C781        C782   1.401       .  A
C781        C786   1.394       .  A
C781        H788   1.085       .  S
C782        C783   1.408       .  A
C783        C784   1.401       .  A
C783       Br790   1.917   1_655  S
C784        C785   1.403       .  A
C784        H789   1.085   1_655  S
C785        C786   1.410       .  A
C786       Br787   1.922       .  S
C791        C792   1.405       .  A
C791        C796   1.401       .  A
C791        H798   1.084       .  S
C792        C793   1.418       .  A
C793        C794   1.401       .  A
C793       Br800   1.923       .  S
C794        C795   1.403       .  A
C794        H799   1.085       .  S
C795        C796   1.412       .  A
C796       Br797   1.921       .  S
C801        C802   1.410       .  A
C801        C806   1.396       .  A
C801        H808   1.083       .  S
C802        C803   1.419       .  A
C803        C804   1.406       .  A
C803       Br810   1.921       .  S
C804        C805   1.406       .  A
C804        H809   1.083       .  S
C805        C806   1.410       .  A
C806       Br807   1.923       .  S
C811        C812   1.399       .  A
C811        C816   1.401       .  A
C811        H818   1.083       .  S
C812        C813   1.406       .  A
C813        C814   1.395       .  A
C813       Br820   1.919       .  S
C814        C815   1.407       .  A
C814        H819   1.083       .  S
C815        C816   1.421       .  A
C816       Br817   1.924       .  S
C821        C822   1.397       .  A
C821        C826   1.395   1_556  A
C821        H828   1.085       .  S
C822        C823   1.407       .  A
C823        C824   1.398   1_556  A
C823       Br830   1.918   1_655  S
C824        C825   1.404       .  A
C824        H829   1.084   1_655  S
C825        C826   1.416       .  A
C826       Br827   1.922       .  S
C831        C832   1.405       .  A
C831        C836   1.401       .  A
C831        H838   1.084       .  S
C832        C833   1.416       .  A
C833        C834   1.399   1_655  A
C833       Br840   1.922   1_655  S
C834        C835   1.404   1_455  A
C834        H839   1.084       .  S
C835        C836   1.416       .  A
C836       Br837   1.920       .  S
C841        C842   1.398       .  A
C841        C846   1.396       .  A
C841        H848   1.083       .  S
C842        C843   1.412       .  A
C843        C844   1.407       .  A
C843       Br850   1.918       .  S
C844        C845   1.403       .  A
C844        H849   1.082       .  S
C845        C846   1.412       .  A
C846       Br847   1.915       .  S
C851        C852   1.406       .  A
C851        C856   1.394       .  A
C851        H858   1.083       .  S
C852        C853   1.415       .  A
C853        C854   1.402       .  A
C853       Br860   1.921   1_455  S
C854        C855   1.403       .  A
C854        H859   1.083   1_556  S
C855        C856   1.405       .  A
C856       Br857   1.920       .  S
C861        C862   1.413       .  A
C861        C866   1.400       .  A
C861        H868   1.083       .  S
C862        C863   1.415       .  A
C863        C864   1.401       .  A
C863       Br870   1.922       .  S
C864        C865   1.407       .  A
C864        H869   1.084       .  S
C865        C866   1.406       .  A
C866       Br867   1.919       .  S
C871        C872   1.406       .  A
C871        C876   1.403       .  A
C871        H878   1.083       .  S
C872        C873   1.414       .  A
C873        C874   1.399       .  A
C873       Br880   1.921       .  S
C874        C875   1.402       .  A
C874        H879   1.084       .  S
C875        C876   1.412       .  A
C876       Br877   1.920       .  S
C881        C882   1.406       .  A
C881        C886   1.408       .  A
C881        H888   1.082       .  S
C882        C883   1.407       .  A
C883        C884   1.396       .  A
C883       Br890   1.921       .  S
C884        C885   1.411       .  A
C884        H889   1.082       .  S
C885        C886   1.419       .  A
C886       Br887   1.920       .  S
C891        C892   1.402       .  A
C891        C896   1.397       .  A
C891        H898   1.083       .  S
C892        C893   1.406       .  A
C893        C894   1.398       .  A
C893       Br900   1.919   1_545  S
C894        C895   1.407       .  A
C894        H899   1.083       .  S
C895        C896   1.415       .  A
C896       Br897   1.922       .  S
C901        C902   1.411       .  A
C901        C906   1.405       .  A
C901        H908   1.083       .  S
C902        C903   1.422       .  A
C903        C904   1.400       .  A
C903       Br910   1.924       .  S
C904        C905   1.402       .  A
C904        H909   1.084       .  S
C905        C906   1.411       .  A
C906       Br907   1.919       .  S
C911        C912   1.398       .  A
C911        C916   1.397       .  A
C911        H918   1.085       .  S
C912        C913   1.405       .  A
C913        C914   1.396       .  A
C913       Br920   1.918       .  S
C914        C915   1.406       .  A
C914        H919   1.085       .  S
C915        C916   1.418       .  A
C916       Br917   1.922       .  S
C921        C922   1.396   1_565  A
C921        C926   1.397   1_565  A
C921        H928   1.085       .  S
C922        C923   1.410       .  A
C923        C924   1.398       .  A
C923       Br930   1.921       .  S
C924        C925   1.407       .  A
C924        H929   1.084       .  S
C925        C926   1.422       .  A
C926       Br927   1.921   1_545  S
C931        C932   1.406       .  A
C931        C936   1.402       .  A
C931        H938   1.084       .  S
C932        C933   1.412       .  A
C933        C934   1.397       .  A
C933       Br940   1.919       .  S
C934        C935   1.403       .  A
C934        H939   1.082       .  S
C935        C936   1.414       .  A
C936       Br937   1.920       .  S
C941        C942   1.405       .  A
C941        C946   1.407       .  A
C941        H948   1.082       .  S
C942        C943   1.405       .  A
C943        C944   1.396       .  A
C943       Br950   1.920       .  S
C944        C945   1.410       .  A
C944        H949   1.082       .  S
C945        C946   1.414       .  A
C946       Br947   1.919       .  S
C951        C952   1.399       .  A
C951        C956   1.398       .  A
C951        H958   1.084       .  S
C952        C953   1.404       .  A
C953        C954   1.399       .  A
C953       Br960   1.919       .  S
C954        C955   1.410       .  A
C954        H959   1.083       .  S
C955        C956   1.421       .  A
C956       Br957   1.923       .  S
C961        C962   1.400       .  A
C961        C966   1.401       .  A
C961        H968   1.084       .  S
C962        C963   1.406       .  A
C963        C964   1.392       .  A
C963       Br970   1.923   1_655  S
C964        C965   1.410       .  A
C964        H969   1.083   1_655  S
C965        C966   1.415       .  A
C966       Br967   1.909       .  S
C971        C972   1.408       .  A
C971        C976   1.406       .  A
C971        H978   1.081       .  S
C972        C973   1.410       .  A
C973        C974   1.401       .  A
C973       Br980   1.921       .  S
C974        C975   1.405       .  A
C974        H979   1.075       .  S
C975        C976   1.414       .  A
C976       Br977   1.920       .  S
C981        C982   1.409       .  A
C981        C986   1.400   1_455  A
C981        H988   1.084   1_455  S
C982        C983   1.417       .  A
C983        C984   1.403       .  A
C983       Br990   1.921       .  S
C984        C985   1.403   1_455  A
C984        H989   1.084       .  S
C985        C986   1.407       .  A
C986       Br987   1.919       .  S
C991        C992   1.407       .  A
C991        C996   1.395       .  A
C991        H998   1.082       .  S
C992        C993   1.422       .  A
C993        C994   1.400       .  A
C993      Br1000   1.923       .  S
C994        C995   1.397       .  A
C994        H999   1.084       .  S
C995        C996   1.406       .  A
C996       Br997   1.915       .  S
C1001      C1002   1.406       .  A
C1001      C1006   1.401       .  A
C1001      H1008   1.084       .  S
C1002      C1003   1.410       .  A
C1003      C1004   1.403       .  A
C1003     Br1010   1.919       .  S
C1004      C1005   1.406       .  A
C1004      H1009   1.084       .  S
C1005      C1006   1.412       .  A
C1006     Br1007   1.921       .  S
C1011      C1012   1.406       .  A
C1011      C1016   1.406       .  A
C1011      H1018   1.084       .  S
C1012      C1013   1.411       .  A
C1013      C1014   1.397       .  A
C1013     Br1020   1.920       .  S
C1014      C1015   1.406       .  A
C1014      H1019   1.084       .  S
C1015      C1016   1.414       .  A
C1016     Br1017   1.914       .  S
C1021      C1022   1.401       .  A
C1021      C1026   1.400       .  A
C1021      H1028   1.084       .  S
C1022      C1023   1.408       .  A
C1023      C1024   1.405       .  A
C1023     Br1030   1.918       .  S
C1024      C1025   1.411       .  A
C1024      H1029   1.083       .  S
C1025      C1026   1.420       .  A
C1026     Br1027   1.923   1_455  S
C1031      C1032   1.405       .  A
C1031      C1036   1.400       .  A
C1031      H1038   1.085       .  S
C1032      C1033   1.409       .  A
C1033      C1034   1.393       .  A
C1033     Br1040   1.921       .  S
C1034      C1035   1.405       .  A
C1034      H1039   1.085       .  S
C1035      C1036   1.410       .  A
C1036     Br1037   1.920       .  S
C1041      C1042   1.408       .  A
C1041      C1046   1.411       .  A
C1041      H1048   1.082       .  S
C1042      C1043   1.408       .  A
C1043      C1044   1.399       .  A
C1043     Br1050   1.917       .  S
C1044      C1045   1.411       .  A
C1044      H1049   1.082       .  S
C1045      C1046   1.419       .  A
C1046     Br1047   1.920       .  S
C1051      C1052   1.412   1_565  A
C1051      C1056   1.398       .  A
C1051      H1058   1.084       .  S
C1052      C1053   1.417       .  A
C1053      C1054   1.403       .  A
C1053     Br1060   1.921       .  S
C1054      C1055   1.405   1_545  A
C1054      H1059   1.084       .  S
C1055      C1056   1.408       .  A
C1056     Br1057   1.922       .  S
C1061      C1062   1.399       .  A
C1061      C1066   1.391       .  A
C1061      H1068   1.084       .  S
C1062      C1063   1.409       .  A
C1063      C1064   1.402       .  A
C1063     Br1070   1.918       .  S
C1064      C1065   1.408       .  A
C1064      H1069   1.083       .  S
C1065      C1066   1.421       .  A
C1066     Br1067   1.928       .  S
C1071      C1072   1.406       .  A
C1071      C1076   1.399       .  A
C1071      H1078   1.084       .  S
C1072      C1073   1.404       .  A
C1073      C1074   1.399       .  A
C1073     Br1080   1.917       .  S
C1074      C1075   1.409       .  A
C1074      H1079   1.083       .  S
C1075      C1076   1.410       .  A
C1076     Br1077   1.920       .  S
C1081      C1082   1.405       .  A
C1081      C1086   1.411       .  A
C1081      H1088   1.082       .  S
C1082      C1083   1.414       .  A
C1083      C1084   1.401       .  A
C1083     Br1090   1.917       .  S
C1084      C1085   1.401       .  A
C1084      H1089   1.083       .  S
C1085      C1086   1.413       .  A
C1086     Br1087   1.917       .  S
C1091      C1092   1.400       .  A
C1091      C1096   1.403       .  A
C1091      H1098   1.083   1_565  S
C1092      C1093   1.409       .  A
C1093      C1094   1.397       .  A
C1093     Br1100   1.918       .  S
C1094      C1095   1.403       .  A
C1094      H1099   1.083       .  S
C1095      C1096   1.417       .  A
C1096     Br1097   1.920       .  S
C1101      C1102   1.404       .  A
C1101      C1106   1.402   1_565  A
C1101      H1108   1.084       .  S
C1102      C1103   1.405       .  A
C1103      C1104   1.398       .  A
C1103     Br1110   1.920       .  S
C1104      C1105   1.412       .  A
C1104      H1109   1.083       .  S
C1105      C1106   1.417   1_565  A
C1106     Br1107   1.922       .  S
C1111      C1112   1.397       .  A
C1111      C1116   1.391       .  A
C1111      H1118   1.084       .  S
C1112      C1113   1.406       .  A
C1113      C1114   1.400       .  A
C1113     Br1120   1.915       .  S
C1114      C1115   1.406       .  A
C1114      H1119   1.081       .  S
C1115      C1116   1.420       .  A
C1116     Br1117   1.926       .  S
C1121      C1122   1.406       .  A
C1121      C1126   1.403       .  A
C1121      H1128   1.082       .  S
C1122      C1123   1.408       .  A
C1123      C1124   1.394       .  A
C1123     Br1130   1.919       .  S
C1124      C1125   1.404       .  A
C1124      H1129   1.083       .  S
C1125      C1126   1.412       .  A
C1126     Br1127   1.920       .  S
C1131      C1132   1.411       .  A
C1131      C1136   1.401       .  A
C1131      H1138   1.084       .  S
C1132      C1133   1.407       .  A
C1133      C1134   1.389       .  A
C1133     Br1140   1.922       .  S
C1134      C1135   1.404       .  A
C1134      H1139   1.084       .  S
C1135      C1136   1.405       .  A
C1136     Br1137   1.920       .  S
C1141      C1142   1.399       .  A
C1141      C1146   1.395       .  A
C1141      H1148   1.084       .  S
C1142      C1143   1.404       .  A
C1143      C1144   1.400       .  A
C1143     Br1150   1.918       .  S
C1144      C1145   1.410       .  A
C1144      H1149   1.083       .  S
C1145      C1146   1.419       .  A
C1146     Br1147   1.924       .  S
C1151      C1152   1.404       .  A
C1151      C1156   1.392       .  A
C1151      H1158   1.079       .  S
C1152      C1153   1.403       .  A
C1153      C1154   1.402       .  A
C1153     Br1160   1.918       .  S
C1154      C1155   1.411       .  A
C1154      H1159   1.082       .  S
C1155      C1156   1.408       .  A
C1156     Br1157   1.922       .  S
C1161      C1162   1.405       .  A
C1161      C1166   1.407       .  A
C1161      H1168   1.083       .  S
C1162      C1163   1.407       .  A
C1163      C1164   1.400       .  A
C1163     Br1170   1.919       .  S
C1164      C1165   1.409       .  A
C1164      H1169   1.083       .  S
C1165      C1166   1.415       .  A
C1166     Br1167   1.920       .  S
C1171      C1172   1.410       .  A
C1171      C1176   1.400       .  A
C1171      H1178   1.083       .  S
C1172      C1173   1.415       .  A
C1173      C1174   1.395       .  A
C1173     Br1180   1.923       .  S
C1174      C1175   1.404       .  A
C1174      H1179   1.084       .  S
C1175      C1176   1.409       .  A
C1176     Br1177   1.920       .  S
C1181      C1182   1.408       .  A
C1181      C1186   1.402       .  A
C1181      H1188   1.083       .  S
C1182      C1183   1.408       .  A
C1183      C1184   1.396       .  A
C1183     Br1190   1.918       .  S
C1184      C1185   1.402       .  A
C1184      H1189   1.081       .  S
C1185      C1186   1.403       .  A
C1186     Br1187   1.917       .  S
C1191      C1192   1.401       .  A
C1191      C1196   1.396   1_556  A
C1191      H1198   1.084       .  S
C1192      C1193   1.408       .  A
C1193      C1194   1.398   1_556  A
C1193     Br1200   1.921       .  S
C1194      C1195   1.410       .  A
C1194      H1199   1.084       .  S
C1195      C1196   1.417       .  A
C1196     Br1197   1.923       .  S
C1201      C1202   1.407       .  A
C1201      C1206   1.402       .  A
C1201      H1208   1.084       .  S
C1202      C1203   1.406       .  A
C1203      C1204   1.390       .  A
C1203     Br1210   1.920       .  S
C1204      C1205   1.406       .  A
C1204      H1209   1.084       .  S
C1205      C1206   1.409       .  A
C1206     Br1207   1.919       .  S
C1211      C1212   1.410       .  A
C1211      C1216   1.404       .  A
C1211      H1218   1.082       .  S
C1212      C1213   1.421       .  A
C1213      C1214   1.401       .  A
C1213     Br1220   1.924       .  S
C1214      C1215   1.403       .  A
C1214      H1219   1.083       .  S
C1215      C1216   1.412       .  A
C1216     Br1217   1.920       .  S
C1221      C1222   1.395       .  A
C1221      C1226   1.387       .  A
C1221      H1228   1.084       .  S
C1222      C1223   1.408       .  A
C1223      C1224   1.403       .  A
C1223     Br1230   1.914       .  S
C1224      C1225   1.406       .  A
C1224      H1229   1.083       .  S
C1225      C1226   1.423       .  A
C1226     Br1227   1.928       .  S
C1231      C1232   1.404       .  A
C1231      C1236   1.394       .  A
C1231      H1238   1.083       .  S
C1232      C1233   1.413       .  A
C1233      C1234   1.403       .  A
C1233     Br1240   1.916       .  S
C1234      C1235   1.400       .  A
C1234      H1239   1.083       .  S
C1235      C1236   1.406       .  A
C1236     Br1237   1.919       .  S
C1241      C1242   1.409       .  A
C1241      C1246   1.398       .  A
C1241      H1248   1.083       .  S
C1242      C1243   1.412       .  A
C1243      C1244   1.399       .  A
C1243     Br1250   1.921       .  S
C1244      C1245   1.405       .  A
C1244      H1249   1.084   1_556  S
C1245      C1246   1.403       .  A
C1246     Br1247   1.917       .  S
C1251      C1252   1.406       .  A
C1251      C1256   1.400       .  A
C1251      H1258   1.083       .  S
C1252      C1253   1.407       .  A
C1253      C1254   1.393       .  A
C1253     Br1260   1.921   1_455  S
C1254      C1255   1.406       .  A
C1254      H1259   1.083       .  S
C1255      C1256   1.409       .  A
C1256     Br1257   1.918       .  S
C1261      C1262   1.411       .  A
C1261      C1266   1.397       .  A
C1261      H1268   1.083       .  S
C1262      C1263   1.419       .  A
C1263      C1264   1.407       .  A
C1263     Br1270   1.920       .  S
C1264      C1265   1.405       .  A
C1264      H1269   1.084       .  S
C1265      C1266   1.409       .  A
C1266     Br1267   1.922       .  S
C1271      C1272   1.411   1_655  A
C1271      C1276   1.395       .  A
C1271      H1278   1.083       .  S
C1272      C1273   1.417       .  A
C1273      C1274   1.396       .  A
C1273     Br1280   1.923       .  S
C1274      C1275   1.401       .  A
C1274      H1279   1.084       .  S
C1275      C1276   1.403   1_455  A
C1276     Br1277   1.919       .  S
C1281      C1282   1.398       .  A
C1281      C1286   1.393       .  A
C1281      H1288   1.085       .  S
C1282      C1283   1.411   1_455  A
C1283      C1284   1.400       .  A
C1283     Br1290   1.921       .  S
C1284      C1285   1.406       .  A
C1284      H1289   1.084       .  S
C1285      C1286   1.418   1_655  A
C1286     Br1287   1.919       .  S
C1291      C1292   1.400       .  A
C1291      C1296   1.394       .  A
C1291      H1298   1.086       .  S
C1292      C1293   1.406       .  A
C1293      C1294   1.404       .  A
C1293     Br1300   1.918       .  S
C1294      C1295   1.412       .  A
C1294      H1299   1.084       .  S
C1295      C1296   1.416       .  A
C1296     Br1297   1.923       .  S
C1301      C1302   1.405       .  A
C1301      C1306   1.406       .  A
C1301      H1308   1.083       .  S
C1302      C1303   1.405       .  A
C1303      C1304   1.397       .  A
C1303     Br1310   1.920       .  S
C1304      C1305   1.411       .  A
C1304      H1309   1.083       .  S
C1305      C1306   1.415       .  A
C1306     Br1307   1.919       .  S
C1311      C1312   1.407       .  A
C1311      C1316   1.396       .  A
C1311      H1318   1.084       .  S
C1312      C1313   1.417       .  A
C1313      C1314   1.399       .  A
C1313     Br1320   1.919       .  S
C1314      C1315   1.399       .  A
C1314      H1319   1.084       .  S
C1315      C1316   1.407       .  A
C1316     Br1317   1.920       .  S
C1321      C1322   1.398       .  A
C1321      C1326   1.388       .  A
C1321      H1328   1.083       .  S
C1322      C1323   1.419       .  A
C1323      C1324   1.404       .  A
C1323     Br1330   1.922       .  S
C1324      C1325   1.402       .  A
C1324      H1329   1.084       .  S
C1325      C1326   1.418       .  A
C1326     Br1327   1.924       .  S
C1331      C1332   1.405       .  A
C1331      C1336   1.392       .  A
C1331      H1338   1.085       .  S
C1332      C1333   1.405       .  A
C1333      C1334   1.402       .  A
C1333     Br1340   1.919       .  S
C1334      C1335   1.412       .  A
C1334      H1339   1.084       .  S
C1335      C1336   1.409       .  A
C1336     Br1337   1.923       .  S
C1341      C1342   1.401       .  A
C1341      C1346   1.402       .  A
C1341      H1348   1.084       .  S
C1342      C1343   1.408       .  A
C1343      C1344   1.386       .  A
C1343     Br1350   1.925       .  S
C1344      C1345   1.407       .  A
C1344      H1349   1.084       .  S
C1345      C1346   1.417       .  A
C1346     Br1347   1.914       .  S
C1351      C1352   1.403       .  A
C1351      C1356   1.398       .  A
C1351      H1358   1.084       .  S
C1352      C1353   1.401       .  A
C1353      C1354   1.397       .  A
C1353     Br1360   1.918       .  S
C1354      C1355   1.412       .  A
C1354      H1359   1.083       .  S
C1355      C1356   1.417       .  A
C1356     Br1357   1.923       .  S
C1361      C1362   1.407       .  A
C1361      C1366   1.394       .  A
C1361      H1368   1.083       .  S
C1362      C1363   1.405       .  A
C1363      C1364   1.403       .  A
C1363     Br1370   1.918       .  S
C1364      C1365   1.412       .  A
C1364      H1369   1.083       .  S
C1365      C1366   1.409       .  A
C1366     Br1367   1.921       .  S
C1371      C1372   1.410       .  A
C1371      C1376   1.400       .  A
C1371      H1378   1.083       .  S
C1372      C1373   1.416       .  A
C1373      C1374   1.406       .  A
C1373     Br1380   1.919       .  S
C1374      C1375   1.405       .  A
C1374      H1379   1.083       .  S
C1375      C1376   1.407       .  A
C1376     Br1377   1.920       .  S
C1381      C1382   1.402       .  A
C1381      C1386   1.392       .  A
C1381      H1388   1.080       .  S
C1382      C1383   1.403       .  A
C1383      C1384   1.402       .  A
C1383     Br1390   1.916   1_565  S
C1384      C1385   1.409       .  A
C1384      H1389   1.082       .  S
C1385      C1386   1.405       .  A
C1386     Br1387   1.921       .  S
C1391      C1392   1.412       .  A
C1391      C1396   1.400       .  A
C1391      H1398   1.083       .  S
C1392      C1393   1.418       .  A
C1393      C1394   1.396       .  A
C1393     Br1400   1.923       .  S
C1394      C1395   1.400       .  A
C1394      H1399   1.084       .  S
C1395      C1396   1.404       .  A
C1396     Br1397   1.919       .  S
C1401      C1402   1.403       .  A
C1401      C1406   1.392       .  A
C1401      H1408   1.084       .  S
C1402      C1403   1.408       .  A
C1403      C1404   1.401       .  A
C1403     Br1410   1.917       .  S
C1404      C1405   1.404       .  A
C1404      H1409   1.085       .  S
C1405      C1406   1.407       .  A
C1406     Br1407   1.920   1_655  S
C1411      C1412   1.404       .  A
C1411      C1416   1.408       .  A
C1411      H1418   1.082       .  S
C1412      C1413   1.405       .  A
C1413      C1414   1.399       .  A
C1413     Br1420   1.920       .  S
C1414      C1415   1.411       .  A
C1414      H1419   1.082       .  S
C1415      C1416   1.418       .  A
C1416     Br1417   1.919       .  S
C1421      C1422   1.400       .  A
C1421      C1426   1.388       .  A
C1421      H1428   1.082       .  S
C1422      C1423   1.404       .  A
C1423      C1424   1.403       .  A
C1423     Br1430   1.917       .  S
C1424      C1425   1.407       .  A
C1424      H1429   1.083       .  S
C1425      C1426   1.404       .  A
C1426     Br1427   1.922       .  S
C1431      C1432   1.410       .  A
C1431      C1436   1.405       .  A
C1431      H1438   1.085       .  S
C1432      C1433   1.422       .  A
C1433      C1434   1.391       .  A
C1433     Br1440   1.928       .  S
C1434      C1435   1.398       .  A
C1434      H1439   1.085       .  S
C1435      C1436   1.408       .  A
C1436     Br1437   1.917       .  S
C1441      C1442   1.406       .  A
C1441      C1446   1.402       .  A
C1441      H1448   1.083       .  S
C1442      C1443   1.412       .  A
C1443      C1444   1.399       .  A
C1443     Br1450   1.921       .  S
C1444      C1445   1.404       .  A
C1444      H1449   1.083       .  S
C1445      C1446   1.410       .  A
C1446     Br1447   1.919       .  S
C1451      C1452   1.404   1_545  A
C1451      C1456   1.402       .  A
C1451      H1458   1.084       .  S
C1452      C1453   1.406       .  A
C1453      C1454   1.398       .  A
C1453     Br1460   1.919       .  S
C1454      C1455   1.408   1_565  A
C1454      H1459   1.084       .  S
C1455      C1456   1.415       .  A
C1456     Br1457   1.921       .  S
C1461      C1462   1.396       .  A
C1461      C1466   1.392       .  A
C1461      H1468   1.084       .  S
C1462      C1463   1.406       .  A
C1463      C1464   1.404       .  A
C1463     Br1470   1.916       .  S
C1464      C1465   1.408       .  A
C1464      H1469   1.083       .  S
C1465      C1466   1.420       .  A
C1466     Br1467   1.925       .  S
C1471      C1472   1.406       .  A
C1471      C1476   1.400       .  A
C1471      H1478   1.083       .  S
C1472      C1473   1.414       .  A
C1473      C1474   1.404       .  A
C1473     Br1480   1.921   1_545  S
C1474      C1475   1.407       .  A
C1474      H1479   1.083       .  S
C1475      C1476   1.412       .  A
C1476     Br1477   1.920       .  S
C1481      C1482   1.413       .  A
C1481      C1486   1.404       .  A
C1481      H1488   1.082       .  S
C1482      C1483   1.409       .  A
C1483      C1484   1.392       .  A
C1483     Br1490   1.922       .  S
C1484      C1485   1.404       .  A
C1484      H1489   1.081       .  S
C1485      C1486   1.404       .  A
C1486     Br1487   1.918       .  S
C1491      C1492   1.398       .  A
C1491      C1496   1.397       .  A
C1491      H1498   1.084       .  S
C1492      C1493   1.404   1_565  A
C1493      C1494   1.399       .  A
C1493     Br1500   1.919   1_556  S
C1494      C1495   1.410   1_545  A
C1494      H1499   1.083       .  S
C1495      C1496   1.420       .  A
C1496     Br1497   1.924       .  S
C1501      C1502   1.405       .  A
C1501      C1506   1.394       .  A
C1501      H1508   1.083       .  S
C1502      C1503   1.404       .  A
C1503      C1504   1.401       .  A
C1503     Br1510   1.918       .  S
C1504      C1505   1.412       .  A
C1504      H1509   1.083       .  S
C1505      C1506   1.410       .  A
C1506     Br1507   1.922       .  S
C1511      C1512   1.407       .  A
C1511      C1516   1.404       .  A
C1511      H1518   1.083       .  S
C1512      C1513   1.409       .  A
C1513      C1514   1.394       .  A
C1513     Br1520   1.921       .  S
C1514      C1515   1.408       .  A
C1514      H1519   1.083       .  S
C1515      C1516   1.412       .  A
C1516     Br1517   1.919       .  S
C1521      C1522   1.409       .  A
C1521      C1526   1.404       .  A
C1521      H1528   1.083       .  S
C1522      C1523   1.406       .  A
C1523      C1524   1.393       .  A
C1523     Br1530   1.920       .  S
C1524      C1525   1.401       .  A
C1524      H1529   1.080       .  S
C1525      C1526   1.403       .  A
C1526     Br1527   1.917       .  S
C1531      C1532   1.404       .  A
C1531      C1536   1.405       .  A
C1531      H1538   1.084       .  S
C1532      C1533   1.402       .  A
C1533      C1534   1.393       .  A
C1533     Br1540   1.919       .  S
C1534      C1535   1.410       .  A
C1534      H1539   1.083       .  S
C1535      C1536   1.417       .  A
C1536     Br1537   1.920   1_455  S
C1541      C1542   1.408       .  A
C1541      C1546   1.397       .  A
C1541      H1548   1.084       .  S
C1542      C1543   1.412       .  A
C1543      C1544   1.403       .  A
C1543     Br1550   1.919       .  S
C1544      C1545   1.408       .  A
C1544      H1549   1.084       .  S
C1545      C1546   1.410       .  A
C1546     Br1547   1.921       .  S
C1551      C1552   1.403       .  A
C1551      C1556   1.404       .  A
C1551      H1558   1.083       .  S
C1552      C1553   1.410       .  A
C1553      C1554   1.407       .  A
C1553     Br1560   1.918       .  S
C1554      C1555   1.411       .  A
C1554      H1559   1.082       .  S
C1555      C1556   1.424       .  A
C1556     Br1557   1.925       .  S
C1561      C1562   1.403       .  A
C1561      C1566   1.389       .  A
C1561      H1568   1.084       .  S
C1562      C1563   1.409       .  A
C1563      C1564   1.402       .  A
C1563     Br1570   1.919       .  S
C1564      C1565   1.404       .  A
C1564      H1569   1.083       .  S
C1565      C1566   1.403       .  A
C1566     Br1567   1.921       .  S
C1571      C1572   1.407       .  A
C1571      C1576   1.395       .  A
C1571      H1578   1.084       .  S
C1572      C1573   1.414       .  A
C1573      C1574   1.407       .  A
C1573     Br1580   1.916       .  S
C1574      C1575   1.404       .  A
C1574      H1579   1.083       .  S
C1575      C1576   1.407       .  A
C1576     Br1577   1.921       .  S
C1581      C1582   1.402       .  A
C1581      C1586   1.398       .  A
C1581      H1588   1.084       .  S
C1582      C1583   1.406       .  A
C1583      C1584   1.407       .  A
C1583     Br1590   1.917       .  S
C1584      C1585   1.412       .  A
C1584      H1589   1.083       .  S
C1585      C1586   1.416       .  A
C1586     Br1587   1.920       .  S
C1591      C1592   1.407       .  A
C1591      C1596   1.396       .  A
C1591      H1598   1.083       .  S
C1592      C1593   1.419       .  A
C1593      C1594   1.406       .  A
C1593     Br1600   1.921       .  S
C1594      C1595   1.402       .  A
C1594      H1599   1.083       .  S
C1595      C1596   1.408       .  A
C1596     Br1597   1.921       .  S
C1601      C1602   1.398       .  A
C1601      C1606   1.400       .  A
C1601      H1608   1.084       .  S
C1602      C1603   1.409       .  A
C1603      C1604   1.392       .  A
C1603     Br1610   1.917       .  S
C1604      C1605   1.401       .  A
C1604      H1609   1.083       .  S
C1605      C1606   1.418       .  A
C1606     Br1607   1.922       .  S
C1611      C1612   1.402       .  A
C1611      C1616   1.397       .  A
C1611      H1618   1.085       .  S
C1612      C1613   1.402       .  A
C1613      C1614   1.397       .  A
C1613     Br1620   1.916       .  S
C1614      C1615   1.412       .  A
C1614      H1619   1.084       .  S
C1615      C1616   1.414       .  A
C1616     Br1617   1.922       .  S
C1621      C1622   1.407   1_545  A
C1621      C1626   1.401       .  A
C1621      H1628   1.083       .  S
C1622      C1623   1.414       .  A
C1623      C1624   1.401       .  A
C1623     Br1630   1.920       .  S
C1624      C1625   1.405   1_565  A
C1624      H1629   1.084       .  S
C1625      C1626   1.413       .  A
C1626     Br1627   1.921       .  S
C1631      C1632   1.401       .  A
C1631      C1636   1.401   1_556  A
C1631      H1638   1.084       .  S
C1632      C1633   1.403   1_556  A
C1633      C1634   1.397       .  A
C1633     Br1640   1.918   1_554  S
C1634      C1635   1.410       .  A
C1634      H1639   1.083       .  S
C1635      C1636   1.418       .  A
C1636     Br1637   1.922       .  S
C1641      C1642   1.405       .  A
C1641      C1646   1.391       .  A
C1641      H1648   1.081       .  S
C1642      C1643   1.420       .  A
C1643      C1644   1.402       .  A
C1643     Br1650   1.919       .  S
C1644      C1645   1.401       .  A
C1644      H1649   1.084       .  S
C1645      C1646   1.409       .  A
C1646     Br1647   1.924       .  S
C1651      C1652   1.397       .  A
C1651      C1656   1.397       .  A
C1651      H1658   1.085       .  S
C1652      C1653   1.404       .  A
C1653      C1654   1.395       .  A
C1653     Br1660   1.919       .  S
C1654      C1655   1.408       .  A
C1654      H1659   1.085       .  S
C1655      C1656   1.420       .  A
C1656     Br1657   1.923       .  S
C1661      C1662   1.406       .  A
C1661      C1666   1.401       .  A
C1661      H1668   1.083       .  S
C1662      C1663   1.416       .  A
C1663      C1664   1.400       .  A
C1663     Br1670   1.923       .  S
C1664      C1665   1.406       .  A
C1664      H1669   1.084       .  S
C1665      C1666   1.415       .  A
C1666     Br1667   1.922       .  S
C1671      C1672   1.410       .  A
C1671      C1676   1.403       .  A
C1671      H1678   1.082       .  S
C1672      C1673   1.408       .  A
C1673      C1674   1.392       .  A
C1673     Br1680   1.916       .  S
C1674      C1675   1.401       .  A
C1674      H1679   1.082       .  S
C1675      C1676   1.403       .  A
C1676     Br1677   1.918       .  S
C1681      C1682   1.403       .  A
C1681      C1686   1.396       .  A
C1681      H1688   1.082       .  S
C1682      C1683   1.419       .  A
C1683      C1684   1.408       .  A
C1683     Br1690   1.914       .  S
C1684      C1685   1.400       .  A
C1684      H1689   1.082       .  S
C1685      C1686   1.408       .  A
C1686     Br1687   1.911       .  S
C1691      C1692   1.409       .  A
C1691      C1696   1.401       .  A
C1691      H1698   1.083       .  S
C1692      C1693   1.416       .  A
C1693      C1694   1.399       .  A
C1693     Br1700   1.923       .  S
C1694      C1695   1.403       .  A
C1694      H1699   1.083       .  S
C1695      C1696   1.407       .  A
C1696     Br1697   1.918       .  S
C1701      C1702   1.408       .  A
C1701      C1706   1.403       .  A
C1701      H1708   1.082       .  S
C1702      C1703   1.422       .  A
C1703      C1704   1.392       .  A
C1703     Br1710   1.927       .  S
C1704      C1705   1.398       .  A
C1704      H1709   1.085       .  S
C1705      C1706   1.408       .  A
C1706     Br1707   1.918       .  S
C1711      C1712   1.407       .  A
C1711      C1716   1.404       .  A
C1711      H1718   1.084       .  S
C1712      C1713   1.419       .  A
C1713      C1714   1.389       .  A
C1713     Br1720   1.926       .  S
C1714      C1715   1.396       .  A
C1714      H1719   1.085       .  S
C1715      C1716   1.408       .  A
C1716     Br1717   1.917       .  S
C1721      C1722   1.403       .  A
C1721      C1726   1.397       .  A
C1721      H1728   1.083       .  S
C1722      C1723   1.413       .  A
C1723      C1724   1.403       .  A
C1723     Br1730   1.921       .  S
C1724      C1725   1.408       .  A
C1724      H1729   1.083       .  S
C1725      C1726   1.417       .  A
C1726     Br1727   1.921       .  S
C1731      C1732   1.409       .  A
C1731      C1736   1.399       .  A
C1731      H1738   1.083   1_655  S
C1732      C1733   1.420       .  A
C1733      C1734   1.398       .  A
C1733     Br1740   1.924       .  S
C1734      C1735   1.400       .  A
C1734      H1739   1.083       .  S
C1735      C1736   1.404       .  A
C1736     Br1737   1.918       .  S
C1741      C1742   1.403       .  A
C1741      C1746   1.394       .  A
C1741      H1748   1.083       .  S
C1742      C1743   1.410       .  A
C1743      C1744   1.403       .  A
C1743     Br1750   1.917       .  S
C1744      C1745   1.404       .  A
C1744      H1749   1.083       .  S
C1745      C1746   1.410       .  A
C1746     Br1747   1.920       .  S
C1751      C1752   1.402       .  A
C1751      C1756   1.402       .  A
C1751      H1758   1.083   1_655  S
C1752      C1753   1.404       .  A
C1753      C1754   1.399       .  A
C1753     Br1760   1.919       .  S
C1754      C1755   1.411       .  A
C1754      H1759   1.082       .  S
C1755      C1756   1.416       .  A
C1756     Br1757   1.920   1_655  S
C1761      C1762   1.410       .  A
C1761      C1766   1.400       .  A
C1761      H1768   1.082       .  S
C1762      C1763   1.415       .  A
C1763      C1764   1.410       .  A
C1763     Br1770   1.918   1_655  S
C1764      C1765   1.406       .  A
C1764      H1769   1.081   1_655  S
C1765      C1766   1.405       .  A
C1766     Br1767   1.919       .  S
C1771      C1772   1.408       .  A
C1771      C1776   1.403       .  A
C1771      H1778   1.084       .  S
C1772      C1773   1.418       .  A
C1773      C1774   1.386       .  A
C1773     Br1780   1.927       .  S
C1774      C1775   1.396       .  A
C1774      H1779   1.085       .  S
C1775      C1776   1.405       .  A
C1776     Br1777   1.916       .  S
C1781      C1782   1.401       .  A
C1781      C1786   1.392       .  A
C1781      H1788   1.083       .  S
C1782      C1783   1.415       .  A
C1783      C1784   1.403       .  A
C1783     Br1790   1.920       .  S
C1784      C1785   1.401       .  A
C1784      H1789   1.083       .  S
C1785      C1786   1.407       .  A
C1786     Br1787   1.917       .  S
C1791      C1792   1.406       .  A
C1791      C1796   1.397       .  A
C1791      H1798   1.084       .  S
C1792      C1793   1.409       .  A
C1793      C1794   1.399       .  A
C1793     Br1800   1.921       .  S
C1794      C1795   1.410       .  A
C1794      H1799   1.084       .  S
C1795      C1796   1.412       .  A
C1796     Br1797   1.922       .  S
