geometry optimzed in LAMMPS
_audit_creation_date              2020-11-30 
_audit_creation_method            'lammps2cif' 
_symmetry_space_group_name_H-M    'P1' 
_symmetry_Int_Tables_number       1 
_symmetry_cell_setting            triclinic 
loop_ 
_symmetry_equiv_pos_as_xyz 
  x,y,z 
_cell_length_a                    48.45957505 
_cell_length_b                    44.833533280593784 
_cell_length_c                    26.929185498009577 
_cell_angle_alpha                 93.32423420449959 
_cell_angle_beta                  86.80512582560425 
_cell_angle_gamma                 83.14433897353125 
loop_ 
_atom_site_label 
_atom_site_type_symbol 
_atom_site_fract_x 
_atom_site_fract_y 
_atom_site_fract_z 
_atom_site_charge 
O1          O  0.02371347  0.24562838  0.42982789    -0.75100
O2          O  0.02330366  0.24571767  0.07523947    -0.75200
O3          O  0.02051183  0.20374612  0.99943535    -0.75200
O4          O  0.02689914  0.28779811  0.50581422    -0.75300
O5          O  0.48064528  0.29815100  0.51035497    -0.75200
O6          O  0.47420432  0.21383269  0.00479739    -0.75200
O7          O  0.47714878  0.25611440  0.08048193    -0.75100
O8          O  0.47752198  0.25556456  0.43515135    -0.75200
Ni9        Ni  0.02519991  0.24540272  0.50241838     1.25400
Ni10       Ni  0.47576509  0.25631576  0.00794241     1.25400
C11         C  0.50065166  0.25066033  0.40831460     0.87100
C12         C  0.50011688  0.25042424  0.10199185     0.87000
C13         C  0.99635566  0.19498044  0.00194253     0.87000
C14         C  0.00490933  0.30679606  0.50762265     0.87200
O15         O  0.02310726  0.24432110  0.17943426    -0.75100
O16         O  0.02364062  0.24752571  0.32482643    -0.75200
O17         O  0.02208363  0.20318597  0.25170684    -0.75200
O18         O  0.02431685  0.28852322  0.25175119    -0.75300
O19         O  0.47839764  0.29600249  0.26149937    -0.75200
O20         O  0.47570558  0.21103394  0.25533916    -0.75200
O21         O  0.47734295  0.25392668  0.33070752    -0.75100
O22         O  0.47689353  0.25349418  0.18536326    -0.75200
Ni23       Ni  0.02492058  0.24559405  0.25179719     1.25400
Ni24       Ni  0.47548579  0.25383633  0.25836169     1.25400
C25         C  0.99998336  0.24930749  0.15825150     0.87100
C26         C  0.00058241  0.25075203  0.35195374     0.87000
C27         C  0.99840652  0.19312839  0.25435500     0.87000
C28         C  0.00161693  0.30657629  0.25565887     0.87200
O29         O  0.07518700  0.47774561  0.45867224    -0.81600
O30         O  0.43987728  0.48661433  0.47704856    -0.66300
O31         O  0.01760533  0.00084250  0.46084740    -1.12900
C32         C  0.00244927  0.01805177  0.11700977     1.05300
O33         O  0.42526651  0.02428930  0.03391294    -0.79500
O34         O  0.46693400  0.05958576  0.02205838    -0.67100
Ni35       Ni  0.04290817  0.46892612  0.42574932     1.34900
C36         C  0.49094076  0.06826622  0.01725263     0.84000
O37         O  0.47383781  0.48592024  0.39874176    -0.80000
O38         O  0.01310594  0.45872290  0.38926734    -0.90300
C39         C  0.42063059  0.00370787  0.50215125     0.83600
O40         O  0.03411676  0.44227709  0.47524850    -0.68500
O41         O  0.48689620  0.04107121  0.10736745    -0.87800
C42         C  0.01040672  0.43299367  0.48112223     0.84400
C43         C  0.49771801  0.48162229  0.37862223     1.06000
H44         H  0.48003653  0.48115983  0.04709813     0.37800
O45         O  0.48265208  0.50020105  0.03416550    -1.10400
O46         O  0.01349489  0.05101537  0.02268498    -0.67100
Ni47       Ni  0.02223850  0.00755062  0.02810951     1.26300
O48         O  0.48756161  0.44947404  0.47418690    -0.67300
O49         O  0.02633620  0.01407428  0.09676457    -0.79600
C50         C  0.07981488  0.49747822  0.99180168     0.83800
O51         O  0.06065240  0.01344376  0.01893889    -0.66800
Ni52       Ni  0.45726434  0.03197073  0.06920648     1.27400
Ni53       Ni  0.47811969  0.49292599  0.46726389     1.26100
H54         H  0.01994697  0.02000610  0.44796912     0.38400
O55         O  0.07311926  0.47682577  0.19433995    -0.81600
O56         O  0.43832516  0.48984195  0.23442250    -0.66300
O57         O  0.01568750  0.00233234  0.20884568    -1.12900
C58         C  0.01019956  0.00813068  0.36555445     1.05300
O59         O  0.42733430  0.02252981  0.30008115    -0.79500
O60         O  0.46971868  0.05730591  0.28448162    -0.67100
Ni61       Ni  0.03821962  0.47236083  0.16473210     1.34900
C62         C  0.49364487  0.06579026  0.27605725     0.84000
O63         O  0.46748657  0.49501921  0.15339919    -0.80000
O64         O  0.00560113  0.46711466  0.13273194    -0.90300
C65         C  0.42057574  0.00503118  0.26514292     0.83600
O66         O  0.03072447  0.44086487  0.20646946    -0.68500
O67         O  0.49492853  0.03244465  0.36116881    -0.87800
C68         C  0.00679587  0.43356128  0.21930321     0.84400
C69         C  0.49018497  0.49138143  0.12926554     1.06000
H70         H  0.48264665  0.47719219  0.29676292     0.37800
O71         O  0.48480268  0.49697032  0.28615030    -1.10400
O72         O  0.01630026  0.04791477  0.27751203    -0.67100
Ni73       Ni  0.02437301  0.00374505  0.27452425     1.26300
O74         O  0.48460701  0.45206376  0.21848307    -0.67300
O75         O  0.03300451  0.00411574  0.34163861    -0.79600
C76         C  0.07992800  0.49442165  0.22921608     0.83800
O77         O  0.06223972  0.00953135  0.26019563    -0.66800
Ni78       Ni  0.46222668  0.02719572  0.32916888     1.27400
Ni79       Ni  0.47620229  0.49573857  0.22042122     1.26100
H80         H  0.01768367  0.02217092  0.19861256     0.38400
O81         O  0.25167713  0.47533855  0.42027231    -0.75100
O82         O  0.25315120  0.47534237  0.06539319    -0.75200
O83         O  0.21269953  0.47665606  0.99797904    -0.75200
O84         O  0.29214085  0.47402774  0.98748907    -0.75300
O85         O  0.28779315  0.02417742  0.49322650    -0.75200
O86         O  0.20838609  0.02682076  0.50310098    -0.75200
O87         O  0.24869058  0.02539735  0.07071802    -0.75100
O88         O  0.24749932  0.02538981  0.42551746    -0.75200
Ni89       Ni  0.25256649  0.47359119  0.99261882     1.25400
Ni90       Ni  0.24794334  0.02718665  0.49831030     1.25400
C91         C  0.24931236  0.00036353  0.39876046     0.87100
C92         C  0.25120671  0.00035113  0.09221662     0.87000
C93         C  0.19747590  0.00217556  0.00163273     0.87000
C94         C  0.30305109  0.99868823  0.48928954     0.87200
O95         O  0.25421863  0.47527397  0.17011003    -0.75100
O96         O  0.25162524  0.47528811  0.31562978    -0.75200
O97         O  0.21326437  0.47562990  0.24407060    -0.75200
O98         O  0.29265845  0.47479945  0.24204505    -0.75300
O99         O  0.28730846  0.02498420  0.24712051    -0.75200
O100        O  0.20794507  0.02581190  0.24948073    -0.75200
O101        O  0.24643883  0.02536379  0.32093283    -0.75100
O102        O  0.24887111  0.02534405  0.17547733    -0.75200
Ni103      Ni  0.25313066  0.47349811  0.24272970     1.25400
Ni104      Ni  0.24745886  0.02711118  0.24841310     1.25400
C105        C  0.25156003  0.00031475  0.14859377     0.87100
C106        C  0.24899582  0.00033854  0.34244998     0.87000
C107        C  0.19756050  0.00084596  0.24640944     0.87000
C108        C  0.30300592  0.99978759  0.24537637     0.87200
C109        C  0.12347768  0.48377429  0.27413761    -0.02500
C110        C  0.10975241  0.49706872  0.23462209     0.07100
C111        C  0.12439998  0.01346625  0.20118028    -0.02700
C112        C  0.15292920  0.01561039  0.20605759    -0.02700
C113        C  0.16705226  0.50098610  0.24412255     0.07300
C114        C  0.15207402  0.48556661  0.27873241    -0.02900
Br115      Br  0.17040243  0.46803638  0.33386647    -0.01400
Br116      Br  0.10307785  0.46281048  0.32176829    -0.01500
Br117      Br  0.17269654  0.03796872  0.15952612    -0.01400
Br118      Br  0.10507353  0.03383059  0.14966853    -0.01400
C119        C  0.34871167  0.01536140  0.21496545    -0.02500
C120        C  0.33344103  0.99970853  0.24877704     0.07100
C121        C  0.34714704  0.48510119  0.28734038    -0.02700
C122        C  0.37584149  0.48625205  0.29198838    -0.02700
C123        C  0.39076434  0.00279528  0.25926497     0.07300
C124        C  0.37719347  0.01724735  0.22065376    -0.02900
Br125      Br  0.39756038  0.04040544  0.17642075    -0.01400
Br126      Br  0.33092003  0.03325724  0.15960483    -0.01500
Br127      Br  0.39501760  0.46450220  0.34228250    -0.01400
Br128      Br  0.32646719  0.46488193  0.33570360    -0.01400
C129        C  0.12311050  0.01817967  0.96459303    -0.02500
C130        C  0.10907400  0.50146479  0.99829577     0.07100
C131        C  0.12389625  0.48532580  0.53376249    -0.02700
C132        C  0.15266509  0.48657789  0.53644344    -0.02700
C133        C  0.16687079  0.00311910  0.00234191     0.07300
C134        C  0.15195566  0.01900188  0.96647670    -0.02900
Br135      Br  0.17121782  0.03975099  0.91684925    -0.01400
Br136      Br  0.10297014  0.03836867  0.91373756    -0.01500
Br137      Br  0.17242432  0.46566703  0.58698213    -0.01400
Br138      Br  0.10508201  0.45959236  0.57574377    -0.01400
C139        C  0.34802141  0.01505184  0.45623151    -0.02500
C140        C  0.33367907  0.99781096  0.48903470     0.07100
C141        C  0.34847784  0.48134735  0.02445234    -0.02700
C142        C  0.37711029  0.48295273  0.02805454    -0.02700
C143        C  0.39136933  0.99985319  0.49498154     0.07300
C144        C  0.37688983  0.01575740  0.45892299    -0.02900
Br145      Br  0.39653791  0.03976143  0.41507242    -0.01400
Br146      Br  0.32832770  0.03791079  0.40770377    -0.01500
Br147      Br  0.39656243  0.46365682  0.08051401    -0.01400
Br148      Br  0.32937428  0.45837704  0.07097849    -0.01400
C149        C  0.47816544  0.35824449  0.23682134    -0.02500
C150        C  0.00204300  0.33985692  0.25130230     0.07100
C151        C  0.02658649  0.35346843  0.25932042    -0.02700
C152        C  0.02753132  0.38422678  0.25154263    -0.02700
C153        C  0.00443753  0.40195719  0.23348378     0.07300
C154        C  0.47942699  0.38877082  0.22759347    -0.02900
Br155      Br  0.44618714  0.41129888  0.20486700    -0.01400
Br156      Br  0.44312021  0.34238917  0.22647705    -0.01500
Br157      Br  0.06069086  0.40186043  0.26868652    -0.01400
Br158      Br  0.05968984  0.33085914  0.28183106    -0.01400
C159        C  0.01200228  0.13901134  0.22386240    -0.02500
C160        C  0.99709245  0.16054143  0.25871834     0.07100
C161        C  0.48135458  0.15089509  0.29910230    -0.02700
C162        C  0.48029811  0.12000438  0.30435508    -0.02700
C163        C  0.49500338  0.09828194  0.26922935     0.07300
C164        C  0.01112919  0.10800177  0.22922816    -0.02900
Br165      Br  0.03155459  0.07936642  0.18054491    -0.01400
Br166      Br  0.03269897  0.15204886  0.16737843    -0.01500
Br167      Br  0.46000325  0.10776932  0.36218769    -0.01400
Br168      Br  0.46246771  0.17989384  0.34951518    -0.01400
C169        C  0.49282405  0.39186176  0.02972061    -0.02500
C170        C  0.00988060  0.40082488  0.49055880     0.07100
C171        C  0.02614389  0.37860889  0.45831583    -0.02700
C172        C  0.02450263  0.34792339  0.46413479    -0.02700
C173        C  0.00763655  0.33903452  0.50363615     0.07300
C174        C  0.49238006  0.36106216  0.03710866    -0.02900
Br175      Br  0.47193063  0.34898175  0.09452511    -0.01400
Br176      Br  0.47012413  0.42141668  0.07369153    -0.01500
Br177      Br  0.04377943  0.31825722  0.41517709    -0.01400
Br178      Br  0.04951913  0.38974891  0.40356062    -0.01400
C179        C  0.47799971  0.12163135  0.04831011    -0.02500
C180        C  0.49219600  0.10057850  0.01165532     0.07100
C181        C  0.00798202  0.11066459  0.97185409    -0.02700
C182        C  0.00879849  0.14170528  0.96778535    -0.02700
C183        C  0.49414339  0.16265834  0.00391520     0.07300
C184        C  0.47890953  0.15254566  0.04435924    -0.02900
Br185      Br  0.46095906  0.18076598  0.59683619    -0.01400
Br186      Br  0.45906578  0.10838759  0.60672578    -0.01500
Br187      Br  0.02953861  0.15548657  0.91204487    -0.00600
Br188      Br  0.02837274  0.08223155  0.92271513    -0.01400
O189        O  0.02372682  0.24562805  0.92981765    -0.75100
O190        O  0.02327372  0.24571400  0.57524866    -0.75200
O191        O  0.02049551  0.20374263  0.49943893    -0.75200
O192        O  0.02692767  0.28779956  0.00579610    -0.75300
O193        O  0.48067451  0.29815838  0.01034562    -0.75200
O194        O  0.47418777  0.21382129  0.50478062    -0.75200
O195        O  0.47711816  0.25610127  0.58048083    -0.75100
O196        O  0.47753545  0.25556836  0.93515861    -0.75200
Ni197      Ni  0.02522237  0.24540461  0.00240748     1.25400
Ni198      Ni  0.47574219  0.25630636  0.50793774     1.25400
C199        C  0.50066175  0.25066041  0.90831383     0.87100
C200        C  0.50008548  0.25041666  0.60199640     0.87000
C201        C  0.99634122  0.19497209  0.50193407     0.87000
C202        C  0.00493968  0.30680053  0.00760673     0.87200
O203        O  0.02307997  0.24431241  0.67943097    -0.75100
O204        O  0.02363787  0.24751941  0.82481716    -0.75200
O205        O  0.02206057  0.20318047  0.75170770    -0.75200
O206        O  0.02430828  0.28851427  0.75174139    -0.75300
O207        O  0.47838991  0.29600004  0.76151562    -0.75200
O208        O  0.47568265  0.21103590  0.75535693    -0.75200
O209        O  0.47734012  0.25392560  0.83072124    -0.75100
O210        O  0.47686691  0.25349486  0.68537772    -0.75200
Ni211      Ni  0.02490504  0.24558629  0.75179051     1.25400
Ni212      Ni  0.47547055  0.25383655  0.75837782     1.25400
C213        C  0.99995375  0.24930240  0.65825693     0.87100
C214        C  0.00058363  0.25074918  0.85195500     0.87000
C215        C  0.99838166  0.19312718  0.75436574     0.87000
C216        C  0.00161015  0.30657006  0.75566444     0.87200
O217        O  0.07518388  0.47779241  0.95860203    -0.81600
O218        O  0.43987797  0.48660316  0.97708592    -0.66300
O219        O  0.01759593  0.00085859  0.96083290    -1.12900
C220        C  0.00244333  0.01803025  0.61701646     1.05300
O221        O  0.42526313  0.02428009  0.53391149    -0.79500
O222        O  0.46693568  0.05957504  0.52207081    -0.67100
Ni223      Ni  0.04290081  0.46895330  0.92571097     1.34900
C224        C  0.49094384  0.06825328  0.51726612     0.84000
O225        O  0.47381777  0.48591188  0.89875893    -0.80000
O226        O  0.01309338  0.45873239  0.88925836    -0.90300
C227        C  0.42063227  0.00370643  0.00217342     0.83600
O228        O  0.03413601  0.44229635  0.97521557    -0.68500
O229        O  0.48688990  0.04105087  0.60737854    -0.87800
C230        C  0.01043098  0.43300374  0.98111428     0.84400
C231        C  0.49769370  0.48162583  0.87862435     1.06000
H232        H  0.48002942  0.48114769  0.54708916     0.37800
O233        O  0.48264855  0.50018974  0.53416356    -1.10400
O234        O  0.01349716  0.05100025  0.52269795    -0.67100
Ni235      Ni  0.02223826  0.00753485  0.52812457     1.26300
O236        O  0.48757758  0.44947748  0.97420288    -0.67300
O237        O  0.02633143  0.01405861  0.59677940    -0.79600
C238        C  0.07981802  0.49744236  0.49185322     0.83800
O239        O  0.06065421  0.01342311  0.51896553    -0.66800
Ni240      Ni  0.45726038  0.03195661  0.56920982     1.27400
Ni241      Ni  0.47811486  0.49292716  0.96727369     1.26100
H242        H  0.01992824  0.02002488  0.94795661     0.38400
O243        O  0.07310701  0.47682464  0.69438106    -0.81600
O244        O  0.43831510  0.48981407  0.73439818    -0.66300
O245        O  0.01567276  0.00231607  0.70885543    -1.12900
C246        C  0.01016123  0.00814216  0.86555764     1.05300
O247        O  0.42730549  0.02251396  0.80003396    -0.79500
O248        O  0.46968485  0.05730439  0.78446655    -0.67100
Ni249      Ni  0.03821524  0.47234774  0.66475439     1.34900
C250        C  0.49361110  0.06579053  0.77604930     0.84000
O251        O  0.46748218  0.49498798  0.65338422    -0.80000
O252        O  0.00560358  0.46709256  0.63273648    -0.90300
C253        C  0.42055822  0.00500177  0.76510406     0.83600
O254        O  0.03072053  0.44085670  0.70649668    -0.68500
O255        O  0.49488190  0.03245033  0.86116874    -0.87800
C256        C  0.00679148  0.43355231  0.71932546     0.84400
C257        C  0.49018308  0.49135562  0.62926023     1.06000
H258        H  0.48262448  0.47718982  0.79676555     0.37800
O259        O  0.48477840  0.49696765  0.78614698    -1.10400
O260        O  0.01626737  0.04791707  0.77750536    -0.67100
Ni261      Ni  0.02434802  0.00374614  0.77453954     1.26300
O262        O  0.48460131  0.45205101  0.71849342    -0.67300
O263        O  0.03296966  0.00413876  0.84165334    -0.79600
C264        C  0.07990882  0.49442630  0.72925513     0.83800
O265        O  0.06221510  0.00953996  0.76021985    -0.66800
Ni266      Ni  0.46218930  0.02719134  0.82914675     1.27400
Ni267      Ni  0.47618838  0.49571901  0.72041367     1.26100
H268        H  0.01766665  0.02212129  0.69863617     0.38400
O269        O  0.25168324  0.47532014  0.92028654    -0.75100
O270        O  0.25315290  0.47532214  0.56537451    -0.75200
O271        O  0.21269894  0.47665368  0.49797123    -0.75200
O272        O  0.29213829  0.47402818  0.48745975    -0.75300
O273        O  0.28779631  0.02417759  0.99321516    -0.75200
O274        O  0.20838881  0.02682261  0.00308385    -0.75200
O275        O  0.24868850  0.02537719  0.57072969    -0.75100
O276        O  0.24750353  0.02537147  0.92550207    -0.75200
Ni277      Ni  0.25256474  0.47359030  0.49260005     1.25400
Ni278      Ni  0.24794631  0.02718751  0.99829510     1.25400
C279        C  0.24931584  0.00033988  0.89875948     0.87100
C280        C  0.25120350  0.00032566  0.59221332     0.87000
C281        C  0.19747484  0.00217274  0.50164432     0.87000
C282        C  0.30305368  0.99868805  0.98930456     0.87200
O283        O  0.25419470  0.47523847  0.67010587    -0.75100
O284        O  0.25161132  0.47525410  0.81563244    -0.75200
O285        O  0.21324089  0.47561135  0.74408351    -0.75200
O286        O  0.29263940  0.47474285  0.74203061    -0.75300
O287        O  0.28730768  0.02492760  0.74710665    -0.75200
O288        O  0.20794038  0.02579306  0.74948917    -0.75200
O289        O  0.24644143  0.02532960  0.82092709    -0.75100
O290        O  0.24886666  0.02530830  0.67547710    -0.75200
Ni291      Ni  0.25310926  0.47346147  0.74272905     1.25400
Ni292      Ni  0.24745735  0.02707433  0.74841009     1.25400
C293        C  0.25154904  0.00028073  0.64859118     0.87100
C294        C  0.24899343  0.00030623  0.84244851     0.87000
C295        C  0.19754526  0.00083305  0.74642700     0.87000
C296        C  0.30299655  0.99972516  0.74535514     0.87200
C297        C  0.12345731  0.48378189  0.77418362    -0.02500
C298        C  0.10973161  0.49707739  0.73466956     0.07100
C299        C  0.12437806  0.01347734  0.70123075    -0.02700
C300        C  0.15290766  0.01562028  0.70610530    -0.02700
C301        C  0.16703400  0.50098599  0.74415736     0.07300
C302        C  0.15205547  0.48556822  0.77877031    -0.02900
Br303      Br  0.17038526  0.46803545  0.83390086    -0.01400
Br304      Br  0.10305489  0.46282835  0.82182583    -0.01500
Br305      Br  0.17266874  0.03799537  0.65959179    -0.01400
Br306      Br  0.10504869  0.03384591  0.64972589    -0.01400
C307        C  0.34869886  0.01528405  0.71490869    -0.02500
C308        C  0.33343327  0.99963507  0.74873325     0.07100
C309        C  0.34714487  0.48502913  0.78729192    -0.02700
C310        C  0.37583671  0.48619607  0.79194309    -0.02700
C311        C  0.39075169  0.00274582  0.75921811     0.07300
C312        C  0.37717939  0.01717857  0.72059068    -0.02900
Br313      Br  0.39754287  0.04031796  0.67632074    -0.01400
Br314      Br  0.33090102  0.03316279  0.65953953    -0.01500
Br315      Br  0.39502072  0.46445924  0.84224285    -0.01400
Br316      Br  0.32647735  0.46478590  0.83563919    -0.01400
C317        C  0.12311064  0.01812916  0.46459431    -0.02500
C318        C  0.10907726  0.50143451  0.49833481     0.07100
C319        C  0.12388964  0.48532882  0.03369632    -0.02700
C320        C  0.15265876  0.48657239  0.03638987    -0.02700
C321        C  0.16687077  0.00311315  0.50236903     0.07300
C322        C  0.15195237  0.01897197  0.46648367    -0.02900
Br323      Br  0.17120691  0.03972081  0.41684618    -0.01400
Br324      Br  0.10297373  0.03825223  0.41366984    -0.01500
Br325      Br  0.17240679  0.46563736  0.08691598    -0.01400
Br326      Br  0.10506708  0.45957670  0.07563007    -0.01400
C327        C  0.34803062  0.01501914  0.95621547    -0.02500
C328        C  0.33368090  0.99781128  0.98906234     0.07100
C329        C  0.34848448  0.48131359  0.52437666    -0.02700
C330        C  0.37711604  0.48292241  0.52798323    -0.02700
C331        C  0.39137082  0.99985130  0.99501042     0.07300
C332        C  0.37689884  0.01572483  0.95890969    -0.02900
Br333      Br  0.39655621  0.03968905  0.91500407    -0.01400
Br334      Br  0.32834596  0.03783175  0.90762433    -0.01500
Br335      Br  0.39657384  0.46359153  0.58040329    -0.01400
Br336      Br  0.32939417  0.45829120  0.57083918    -0.01400
C337        C  0.47815961  0.35823876  0.73684077    -0.02500
C338        C  0.00203784  0.33984993  0.75131463     0.07100
C339        C  0.02658167  0.35345996  0.75933557    -0.02700
C340        C  0.02752571  0.38421948  0.75156788    -0.02700
C341        C  0.00443240  0.40195018  0.73350902     0.07300
C342        C  0.47942126  0.38876508  0.72761769    -0.02900
Br343      Br  0.44617986  0.41129362  0.70489618    -0.01400
Br344      Br  0.44311334  0.34238500  0.72649601    -0.01500
Br345      Br  0.06068206  0.40185456  0.76872632    -0.01400
Br346      Br  0.05968629  0.33084651  0.78183264    -0.01400
C347        C  0.01197457  0.13901157  0.72386978    -0.02500
C348        C  0.99706429  0.16054098  0.75872650     0.07100
C349        C  0.48132424  0.15089408  0.79910761    -0.02700
C350        C  0.48026842  0.12000311  0.80435859    -0.02700
C351        C  0.49496939  0.09828221  0.76922603     0.07300
C352        C  0.01109494  0.10800237  0.72922561    -0.02900
Br353      Br  0.03150913  0.07936650  0.68052926    -0.01400
Br354      Br  0.03268398  0.15204905  0.66740061    -0.01500
Br355      Br  0.45998283  0.10776436  0.86219832    -0.01400
Br356      Br  0.46243374  0.17989164  0.84951893    -0.01400
C357        C  0.49279521  0.39185627  0.52973306    -0.02500
C358        C  0.00991679  0.40083290  0.99055870     0.07100
C359        C  0.02618876  0.37861707  0.95832585    -0.02700
C360        C  0.02454586  0.34793044  0.96413878    -0.02700
C361        C  0.00766917  0.33903986  0.00362447     0.07300
C362        C  0.49235637  0.36105711  0.53713040    -0.02900
Br363      Br  0.47193506  0.34897708  0.59457822    -0.01400
Br364      Br  0.47009782  0.42141287  0.57370322    -0.01500
Br365      Br  0.04383008  0.31826550  0.91518629    -0.01400
Br366      Br  0.04957764  0.38975702  0.90358949    -0.01400
C367        C  0.47799277  0.12162046  0.54830688    -0.02500
C368        C  0.49220060  0.10056601  0.51166656     0.07100
C369        C  0.00799589  0.11065180  0.47187662    -0.02700
C370        C  0.00880701  0.14169319  0.46780074    -0.02700
C371        C  0.49413414  0.16264811  0.50390887     0.07300
C372        C  0.47889246  0.15253557  0.54434376    -0.02900
Br373      Br  0.46100002  0.18077403  0.09687578    -0.01400
Br374      Br  0.45906929  0.10839711  0.10672403    -0.01500
Br375      Br  0.02956680  0.15547198  0.41208162    -0.00600
Br376      Br  0.02840968  0.08221752  0.42276574    -0.01400
O377        O  0.02371353  0.74562839  0.42982801    -0.75100
O378        O  0.02330367  0.74571770  0.07523955    -0.75200
O379        O  0.02051178  0.70374610  0.99943557    -0.75200
O380        O  0.02689917  0.78779803  0.50581434    -0.75300
O381        O  0.48064535  0.79815095  0.51035512    -0.75200
O382        O  0.47420435  0.71383264  0.00479734    -0.75200
O383        O  0.47714879  0.75611428  0.08048199    -0.75100
O384        O  0.47752197  0.75556449  0.43515144    -0.75200
Ni385      Ni  0.02519996  0.74540266  0.50241852     1.25400
Ni386      Ni  0.47576508  0.75631575  0.00794245     1.25400
C387        C  0.50065165  0.75066029  0.40831471     0.87100
C388        C  0.50011690  0.75042416  0.10199191     0.87000
C389        C  0.99635560  0.69498043  0.00194266     0.87000
C390        C  0.00490937  0.80679602  0.50762279     0.87200
O391        O  0.02310733  0.74432114  0.17943436    -0.75100
O392        O  0.02364070  0.74752562  0.32482651    -0.75200
O393        O  0.02208368  0.70318595  0.25170691    -0.75200
O394        O  0.02431690  0.78852324  0.25175133    -0.75300
O395        O  0.47839769  0.79600248  0.26149934    -0.75200
O396        O  0.47570564  0.71103389  0.25533926    -0.75200
O397        O  0.47734293  0.75392668  0.33070759    -0.75100
O398        O  0.47689359  0.75349402  0.18536334    -0.75200
Ni399      Ni  0.02492064  0.74559405  0.25179732     1.25400
Ni400      Ni  0.47548583  0.75383627  0.25836173     1.25400
C401        C  0.99998341  0.74930741  0.15825157     0.87100
C402        C  0.00058248  0.75075198  0.35195386     0.87000
C403        C  0.99840656  0.69312837  0.25435511     0.87000
C404        C  0.00161696  0.80657629  0.25565887     0.87200
O405        O  0.07518707  0.97774567  0.45867218    -0.81600
O406        O  0.43987730  0.98661438  0.47704852    -0.66300
O407        O  0.01760526  0.50084249  0.46084740    -1.12900
C408        C  0.00244924  0.51805178  0.11700979     1.05300
O409        O  0.42526647  0.52428932  0.03391293    -0.79500
O410        O  0.46693396  0.55958571  0.02205832    -0.67100
Ni411      Ni  0.04290823  0.96892612  0.42574933     1.34900
C412        C  0.49094073  0.56826618  0.01725260     0.84000
O413        O  0.47383790  0.98592025  0.39874175    -0.80000
O414        O  0.01310600  0.95872286  0.38926737    -0.90300
C415        C  0.42063059  0.50370786  0.50215126     0.83600
O416        O  0.03411680  0.94227708  0.47524852    -0.68500
O417        O  0.48689610  0.54107126  0.10736749    -0.87800
C418        C  0.01040674  0.93299367  0.48112225     0.84400
C419        C  0.49771811  0.98162224  0.37862221     1.06000
H420        H  0.48003652  0.98115990  0.04709811     0.37800
O421        O  0.48265210  0.00020108  0.03416547    -1.10400
O422        O  0.01349489  0.55101531  0.02268497    -0.67100
Ni423      Ni  0.02223845  0.50755057  0.02810957     1.26300
O424        O  0.48756162  0.94947405  0.47418690    -0.67300
O425        O  0.02633617  0.51407429  0.09676459    -0.79600
C426        C  0.07981491  0.99747822  0.99180169     0.83800
O427        O  0.06065236  0.51344369  0.01893898    -0.66800
Ni428      Ni  0.45726427  0.53197073  0.06920646     1.27400
Ni429      Ni  0.47811971  0.99292601  0.46726389     1.26100
H430        H  0.01994685  0.52000609  0.44796914     0.38400
O431        O  0.07311925  0.97682585  0.19433999    -0.81600
O432        O  0.43832520  0.98984183  0.23442250    -0.66300
O433        O  0.01568753  0.50233232  0.20884564    -1.12900
C434        C  0.01019956  0.50813073  0.36555446     1.05300
O435        O  0.42733426  0.52252989  0.30008118    -0.79500
O436        O  0.46971872  0.55730589  0.28448140    -0.67100
Ni437      Ni  0.03821964  0.97236087  0.16473212     1.34900
C438        C  0.49364493  0.56579021  0.27605720     0.84000
O439        O  0.46748662  0.99501921  0.15339919    -0.80000
O440        O  0.00560117  0.96711468  0.13273196    -0.90300
C441        C  0.42057571  0.50503126  0.26514296     0.83600
O442        O  0.03072450  0.94086487  0.20646944    -0.68500
O443        O  0.49492843  0.53244473  0.36116884    -0.87800
C444        C  0.00679591  0.93356124  0.21930315     0.84400
C445        C  0.49018502  0.99138141  0.12926553     1.06000
H446        H  0.48264671  0.97719207  0.29676292     0.37800
O447        O  0.48480275  0.99697026  0.28615030    -1.10400
O448        O  0.01630031  0.54791473  0.27751200    -0.67100
Ni449      Ni  0.02437304  0.50374502  0.27452425     1.26300
O450        O  0.48460707  0.95206371  0.21848301    -0.67300
O451        O  0.03300452  0.50411574  0.34163865    -0.79600
C452        C  0.07992797  0.99442173  0.22921611     0.83800
O453        O  0.06223978  0.50953122  0.26019568    -0.66800
Ni454      Ni  0.46222661  0.52719582  0.32916886     1.27400
Ni455      Ni  0.47620233  0.99573852  0.22042124     1.26100
H456        H  0.01768378  0.52217099  0.19861243     0.38400
O457        O  0.25167711  0.97533854  0.42027229    -0.75100
O458        O  0.25315123  0.97534242  0.06539319    -0.75200
O459        O  0.21269950  0.97665601  0.99797906    -0.75200
O460        O  0.29214082  0.97402784  0.98748904    -0.75300
O461        O  0.28779316  0.52417741  0.49322645    -0.75200
O462        O  0.20838611  0.52682075  0.50310103    -0.75200
O463        O  0.24869060  0.52539730  0.07071799    -0.75100
O464        O  0.24749928  0.52538981  0.42551745    -0.75200
Ni465      Ni  0.25256644  0.97359122  0.99261883     1.25400
Ni466      Ni  0.24794337  0.52718662  0.49831030     1.25400
C467        C  0.24931234  0.50036354  0.39876046     0.87100
C468        C  0.25120667  0.50035108  0.09221662     0.87000
C469        C  0.19747592  0.50217561  0.00163275     0.87000
C470        C  0.30305110  0.49868823  0.48928948     0.87200
O471        O  0.25421862  0.97527400  0.17011002    -0.75100
O472        O  0.25162527  0.97528814  0.31562978    -0.75200
O473        O  0.21326438  0.97562982  0.24407063    -0.75200
O474        O  0.29265848  0.97479941  0.24204503    -0.75300
O475        O  0.28730846  0.52498423  0.24712054    -0.75200
O476        O  0.20794510  0.52581197  0.24948071    -0.75200
O477        O  0.24643881  0.52536376  0.32093283    -0.75100
O478        O  0.24887113  0.52534400  0.17547732    -0.75200
Ni479      Ni  0.25313069  0.97349809  0.24272970     1.25400
Ni480      Ni  0.24745888  0.52711117  0.24841310     1.25400
C481        C  0.25156002  0.50031470  0.14859377     0.87100
C482        C  0.24899579  0.50033852  0.34244998     0.87000
C483        C  0.19756052  0.50084604  0.24640941     0.87000
C484        C  0.30300592  0.49978762  0.24537635     0.87200
C485        C  0.12347764  0.98377423  0.27413755    -0.02500
C486        C  0.10975236  0.99706875  0.23462212     0.07100
C487        C  0.12439999  0.51346629  0.20118028    -0.02700
C488        C  0.15292923  0.51561046  0.20605760    -0.02700
C489        C  0.16705224  0.00098600  0.24412250     0.07300
C490        C  0.15207399  0.98556651  0.27873233    -0.02900
Br491      Br  0.17040231  0.96803642  0.33386652    -0.01400
Br492      Br  0.10307784  0.96281051  0.32176832    -0.01500
Br493      Br  0.17269658  0.53796878  0.15952612    -0.01400
Br494      Br  0.10507358  0.53383064  0.14966854    -0.01400
C495        C  0.34871168  0.51536144  0.21496544    -0.02500
C496        C  0.33344103  0.49970855  0.24877700     0.07100
C497        C  0.34714707  0.98510112  0.28734040    -0.02700
C498        C  0.37584151  0.98625202  0.29198839    -0.02700
C499        C  0.39076433  0.50279534  0.25926500     0.07300
C500        C  0.37719348  0.51724741  0.22065378    -0.02900
Br501      Br  0.39756041  0.54040549  0.17642078    -0.01400
Br502      Br  0.33092007  0.53325731  0.15960483    -0.01500
Br503      Br  0.39501767  0.96450208  0.34228246    -0.01400
Br504      Br  0.32646726  0.96488178  0.33570356    -0.01400
C505        C  0.12311047  0.51817961  0.96459299    -0.02500
C506        C  0.10907404  0.00146475  0.99829573     0.07100
C507        C  0.12389628  0.98532579  0.53376254    -0.02700
C508        C  0.15266514  0.98657783  0.53644344    -0.02700
C509        C  0.16687078  0.50311912  0.00234195     0.07300
C510        C  0.15195566  0.51900178  0.96647667    -0.02900
Br511      Br  0.17121774  0.53975085  0.91684918    -0.01400
Br512      Br  0.10297018  0.53836872  0.91373756    -0.01500
Br513      Br  0.17242439  0.96566688  0.58698208    -0.01400
Br514      Br  0.10508210  0.95959224  0.57574372    -0.01400
C515        C  0.34802142  0.51505187  0.45623151    -0.02500
C516        C  0.33367908  0.49781097  0.48903467     0.07100
C517        C  0.34847786  0.98134741  0.02445236    -0.02700
C518        C  0.37711030  0.98295279  0.02805457    -0.02700
C519        C  0.39136933  0.49985320  0.49498157     0.07300
C520        C  0.37688984  0.51575745  0.45892301    -0.02900
Br521      Br  0.39653795  0.53976148  0.41507246    -0.01400
Br522      Br  0.32832775  0.53791086  0.40770377    -0.01500
Br523      Br  0.39656248  0.96365689  0.08051401    -0.01400
Br524      Br  0.32937433  0.95837710  0.07097850    -0.01400
C525        C  0.47816549  0.85824451  0.23682143    -0.02500
C526        C  0.00204301  0.83985691  0.25130231     0.07100
C527        C  0.02658647  0.85346846  0.25932045    -0.02700
C528        C  0.02753128  0.88422680  0.25154268    -0.02700
C529        C  0.00443754  0.90195718  0.23348376     0.07300
C530        C  0.47942703  0.88877084  0.22759365    -0.02900
Br531      Br  0.44618721  0.91129879  0.20486700    -0.01400
Br532      Br  0.44312028  0.84238919  0.22647707    -0.01500
Br533      Br  0.06069075  0.90186049  0.26868656    -0.01400
Br534      Br  0.05968986  0.83085922  0.28183105    -0.01400
C535        C  0.01200236  0.63901133  0.22386256    -0.02500
C536        C  0.99709250  0.66054141  0.25871853     0.07100
C537        C  0.48135454  0.65089509  0.29910242    -0.02700
C538        C  0.48029815  0.62000437  0.30435522    -0.02700
C539        C  0.49500347  0.59828191  0.26922944     0.07300
C540        C  0.01112925  0.60800176  0.22922819    -0.02900
Br541      Br  0.03155464  0.57936637  0.18054498    -0.01400
Br542      Br  0.03269901  0.65204890  0.16737851    -0.01500
Br543      Br  0.46000333  0.60776918  0.36218771    -0.01400
Br544      Br  0.46246758  0.67989387  0.34951542    -0.01400
C545        C  0.49282403  0.89186179  0.02972065    -0.02500
C546        C  0.00988057  0.90082488  0.49055882     0.07100
C547        C  0.02614388  0.87860890  0.45831588    -0.02700
C548        C  0.02450268  0.84792335  0.46413487    -0.02700
C549        C  0.00763662  0.83903448  0.50363631     0.07300
C550        C  0.49238001  0.86106215  0.03710871    -0.02900
Br551      Br  0.47193049  0.84898180  0.09452508    -0.01400
Br552      Br  0.47012402  0.92141672  0.07369147    -0.01500
Br553      Br  0.04377948  0.81825727  0.41517714    -0.01400
Br554      Br  0.04951916  0.88974895  0.40356068    -0.01400
C555        C  0.47799965  0.62163128  0.04831012    -0.02500
C556        C  0.49219598  0.60057846  0.01165533     0.07100
C557        C  0.00798190  0.61066457  0.97185413    -0.02700
C558        C  0.00879837  0.64170527  0.96778539    -0.02700
C559        C  0.49414345  0.66265830  0.00391532     0.07300
C560        C  0.47890957  0.65254561  0.04435929    -0.02900
Br561      Br  0.46095894  0.68076589  0.59683622    -0.01400
Br562      Br  0.45906564  0.60838762  0.60672577    -0.01500
Br563      Br  0.02953848  0.65548647  0.91204488    -0.00600
Br564      Br  0.02837260  0.58223158  0.92271510    -0.01400
O565        O  0.02372684  0.74562808  0.92981774    -0.75100
O566        O  0.02327377  0.74571390  0.57524883    -0.75200
O567        O  0.02049551  0.70374262  0.49943899    -0.75200
O568        O  0.02692767  0.78779954  0.00579612    -0.75300
O569        O  0.48067455  0.79815837  0.01034570    -0.75200
O570        O  0.47418773  0.71382128  0.50478065    -0.75200
O571        O  0.47711818  0.75610131  0.58048093    -0.75100
O572        O  0.47753543  0.75556844  0.93515866    -0.75200
Ni573      Ni  0.02522236  0.74540461  0.00240757     1.25400
Ni574      Ni  0.47574221  0.75630635  0.50793782     1.25400
C575        C  0.50066175  0.75066049  0.90831395     0.87100
C576        C  0.50008547  0.75041665  0.60199650     0.87000
C577        C  0.99634123  0.69497210  0.50193413     0.87000
C578        C  0.00493968  0.80680050  0.00760679     0.87200
O579        O  0.02308002  0.74431245  0.67943112    -0.75100
O580        O  0.02363786  0.74751942  0.82481724    -0.75200
O581        O  0.02206061  0.70318048  0.75170779    -0.75200
O582        O  0.02430825  0.78851431  0.75174145    -0.75300
O583        O  0.47838993  0.79600004  0.76151564    -0.75200
O584        O  0.47568266  0.71103594  0.75535707    -0.75200
O585        O  0.47734017  0.75392567  0.83072131    -0.75100
O586        O  0.47686691  0.75349482  0.68537784    -0.75200
Ni587      Ni  0.02490506  0.74558630  0.75179061     1.25400
Ni588      Ni  0.47547058  0.75383658  0.75837791     1.25400
C589        C  0.99995380  0.74930240  0.65825704     0.87100
C590        C  0.00058361  0.75074924  0.85195513     0.87000
C591        C  0.99838169  0.69312721  0.75436582     0.87000
C592        C  0.00161011  0.80657010  0.75566443     0.87200
O593        O  0.07518388  0.97779235  0.95860216    -0.81600
O594        O  0.43987798  0.98660311  0.97708597    -0.66300
O595        O  0.01759594  0.50085853  0.96083294    -1.12900
C596        C  0.00244326  0.51803028  0.61701648     1.05300
O597        O  0.42526316  0.52428008  0.53391147    -0.79500
O598        O  0.46693565  0.55957502  0.52207087    -0.67100
Ni599      Ni  0.04290084  0.96895331  0.92571100     1.34900
C600        C  0.49094380  0.56825327  0.51726614     0.84000
O601        O  0.47381779  0.98591176  0.89875891    -0.80000
O602        O  0.01309342  0.95873237  0.88925835    -0.90300
C603        C  0.42063225  0.50370643  0.00217341     0.83600
O604        O  0.03413600  0.94229635  0.97521556    -0.68500
O605        O  0.48688989  0.54105090  0.60737856    -0.87800
C606        C  0.01043098  0.93300372  0.98111424     0.84400
C607        C  0.49769371  0.98162576  0.87862435     1.06000
H608        H  0.48002932  0.98114774  0.54708919     0.37800
O609        O  0.48264852  0.00018976  0.53416357    -1.10400
O610        O  0.01349708  0.55100022  0.52269792    -0.67100
Ni611      Ni  0.02223822  0.50753485  0.52812456     1.26300
O612        O  0.48757763  0.94947747  0.97420293    -0.67300
O613        O  0.02633136  0.51405865  0.59677940    -0.79600
C614        C  0.07981807  0.99744238  0.49185324     0.83800
O615        O  0.06065416  0.51342313  0.51896547    -0.66800
Ni616      Ni  0.45726040  0.53195657  0.56920983     1.27400
Ni617      Ni  0.47811488  0.99292713  0.96727367     1.26100
H618        H  0.01992834  0.52002476  0.94795667     0.38400
O619        O  0.07310701  0.97682466  0.69438102    -0.81600
O620        O  0.43831513  0.98981399  0.73439817    -0.66300
O621        O  0.01567277  0.50231604  0.70885544    -1.12900
C622        C  0.01016122  0.50814221  0.86555766     1.05300
O623        O  0.42730541  0.52251403  0.80003397    -0.79500
O624        O  0.46968488  0.55730435  0.78446649    -0.67100
Ni625      Ni  0.03821525  0.97234775  0.66475438     1.34900
C626        C  0.49361113  0.56579052  0.77604933     0.84000
O627        O  0.46748219  0.99498795  0.65338421    -0.80000
O628        O  0.00560361  0.96709253  0.63273650    -0.90300
C629        C  0.42055816  0.50500183  0.76510406     0.83600
O630        O  0.03072055  0.94085670  0.70649669    -0.68500
O631        O  0.49488187  0.53245036  0.86116872    -0.87800
C632        C  0.00679151  0.93355231  0.71932546     0.84400
C633        C  0.49018309  0.99135558  0.62926023     1.06000
H634        H  0.48262458  0.97718988  0.79676547     0.37800
O635        O  0.48477844  0.99696767  0.78614692    -1.10400
O636        O  0.01626738  0.54791702  0.77750535    -0.67100
Ni637      Ni  0.02434799  0.50374611  0.77453955     1.26300
O638        O  0.48460138  0.95205100  0.71849340    -0.67300
O639        O  0.03296965  0.50413881  0.84165334    -0.79600
C640        C  0.07990883  0.99442627  0.72925511     0.83800
O641        O  0.06221507  0.50953997  0.76021985    -0.66800
Ni642      Ni  0.46218925  0.52719136  0.82914675     1.27400
Ni643      Ni  0.47618841  0.99571901  0.72041362     1.26100
H644        H  0.01766671  0.52212131  0.69863614     0.38400
O645        O  0.25168312  0.97532019  0.92028657    -0.75100
O646        O  0.25315290  0.97532218  0.56537451    -0.75200
O647        O  0.21269893  0.97665367  0.49797124    -0.75200
O648        O  0.29213827  0.97402818  0.48745976    -0.75300
O649        O  0.28779632  0.52417748  0.99321514    -0.75200
O650        O  0.20838884  0.52682266  0.00308383    -0.75200
O651        O  0.24868858  0.52537715  0.57072968    -0.75100
O652        O  0.24750359  0.52537141  0.92550201    -0.75200
Ni653      Ni  0.25256471  0.97359029  0.49260004     1.25400
Ni654      Ni  0.24794635  0.52718746  0.99829507     1.25400
C655        C  0.24931593  0.50033982  0.89875944     0.87100
C656        C  0.25120355  0.50032563  0.59221331     0.87000
C657        C  0.19747485  0.50217274  0.50164430     0.87000
C658        C  0.30305369  0.49868796  0.98930455     0.87200
O659        O  0.25419474  0.97523849  0.67010585    -0.75100
O660        O  0.25161136  0.97525418  0.81563247    -0.75200
O661        O  0.21324097  0.97561136  0.74408352    -0.75200
O662        O  0.29263945  0.97474283  0.74203061    -0.75300
O663        O  0.28730765  0.52492761  0.74710666    -0.75200
O664        O  0.20794037  0.52579305  0.74948918    -0.75200
O665        O  0.24644146  0.52532951  0.82092707    -0.75100
O666        O  0.24886668  0.52530828  0.67547710    -0.75200
Ni667      Ni  0.25310932  0.97346150  0.74272906     1.25400
Ni668      Ni  0.24745732  0.52707430  0.74841010     1.25400
C669        C  0.25154906  0.50028071  0.64859118     0.87100
C670        C  0.24899346  0.50030615  0.84244848     0.87000
C671        C  0.19754521  0.50083307  0.74642700     0.87000
C672        C  0.30299651  0.49972517  0.74535515     0.87200
C673        C  0.12345734  0.98378179  0.77418351    -0.02500
C674        C  0.10973164  0.99707732  0.73466949     0.07100
C675        C  0.12437806  0.51347739  0.70123078    -0.02700
C676        C  0.15290765  0.51562035  0.70610532    -0.02700
C677        C  0.16703405  0.00098591  0.74415732     0.07300
C678        C  0.15205551  0.98556811  0.77877025    -0.02900
Br679      Br  0.17038529  0.96803549  0.83390089    -0.01400
Br680      Br  0.10305479  0.96282836  0.82182560    -0.01500
Br681      Br  0.17266878  0.53799543  0.65959180    -0.01400
Br682      Br  0.10504873  0.53384580  0.64972578    -0.01400
C683        C  0.34869884  0.51528406  0.71490865    -0.02500
C684        C  0.33343323  0.49963507  0.74873328     0.07100
C685        C  0.34714490  0.98502910  0.78729188    -0.02700
C686        C  0.37583672  0.98619608  0.79194307    -0.02700
C687        C  0.39075167  0.50274581  0.75921806     0.07300
C688        C  0.37717936  0.51717854  0.72059061    -0.02900
Br689      Br  0.39754289  0.54031800  0.67632075    -0.01400
Br690      Br  0.33090091  0.53316285  0.65953957    -0.01500
Br691      Br  0.39502062  0.96445928  0.84224291    -0.01400
Br692      Br  0.32647739  0.96478595  0.83563920    -0.01400
C693        C  0.12311061  0.51812914  0.46459429    -0.02500
C694        C  0.10907730  0.00143454  0.49833485     0.07100
C695        C  0.12388965  0.98532880  0.03369629    -0.02700
C696        C  0.15265878  0.98657233  0.03638981    -0.02700
C697        C  0.16687077  0.50311313  0.50236902     0.07300
C698        C  0.15195238  0.51897192  0.46648359    -0.02900
Br699      Br  0.17120697  0.53972067  0.41684614    -0.01400
Br700      Br  0.10297377  0.53825211  0.41366977    -0.01500
Br701      Br  0.17240683  0.96563740  0.08691599    -0.01400
Br702      Br  0.10506699  0.95957677  0.07563008    -0.01400
C703        C  0.34803059  0.51501912  0.95621555    -0.02500
C704        C  0.33368090  0.49781122  0.98906236     0.07100
C705        C  0.34848448  0.98131353  0.52437664    -0.02700
C706        C  0.37711603  0.98292241  0.52798321    -0.02700
C707        C  0.39137081  0.49985126  0.99501041     0.07300
C708        C  0.37689878  0.51572484  0.95890975    -0.02900
Br709      Br  0.39655609  0.53968912  0.91500408    -0.01400
Br710      Br  0.32834585  0.53783161  0.90762431    -0.01500
Br711      Br  0.39657375  0.96359158  0.58040335    -0.01400
Br712      Br  0.32939424  0.95829106  0.57083913    -0.01400
C713        C  0.47815962  0.85823877  0.73684078    -0.02500
C714        C  0.00203782  0.83984996  0.75131464     0.07100
C715        C  0.02658166  0.85345998  0.75933558    -0.02700
C716        C  0.02752574  0.88421948  0.75156791    -0.02700
C717        C  0.00443244  0.90195019  0.73350900     0.07300
C718        C  0.47942127  0.88876509  0.72761768    -0.02900
Br719      Br  0.44617989  0.91129366  0.70489617    -0.01400
Br720      Br  0.44311338  0.84238492  0.72649597    -0.01500
Br721      Br  0.06068205  0.90185462  0.76872664    -0.01400
Br722      Br  0.05968632  0.83084655  0.78183263    -0.01400
C723        C  0.01197446  0.63901160  0.72386971    -0.02500
C724        C  0.99706426  0.66054101  0.75872652     0.07100
C725        C  0.48132414  0.65089413  0.79910757    -0.02700
C726        C  0.48026836  0.62000314  0.80435851    -0.02700
C727        C  0.49496941  0.59828222  0.76922601     0.07300
C728        C  0.01109487  0.60800237  0.72922556    -0.02900
Br729      Br  0.03150917  0.57936644  0.68052932    -0.01400
Br730      Br  0.03268385  0.65204911  0.66740058    -0.01500
Br731      Br  0.45998287  0.60776440  0.86219834    -0.01400
Br732      Br  0.46243360  0.67989169  0.84951890    -0.01400
C733        C  0.49279525  0.89185625  0.52973309    -0.02500
C734        C  0.00991677  0.90083285  0.99055869     0.07100
C735        C  0.02618878  0.87861701  0.95832589    -0.02700
C736        C  0.02454591  0.84793043  0.96413891    -0.02700
C737        C  0.00766917  0.83903982  0.00362462     0.07300
C738        C  0.49235642  0.86105711  0.53713048    -0.02900
Br739      Br  0.47193510  0.84897712  0.59457827    -0.01400
Br740      Br  0.47009788  0.92141291  0.57370322    -0.01500
Br741      Br  0.04383034  0.81826551  0.91518662    -0.01400
Br742      Br  0.04957770  0.88975690  0.90358953    -0.01400
C743        C  0.47799278  0.62162044  0.54830699    -0.02500
C744        C  0.49220053  0.60056603  0.51166663     0.07100
C745        C  0.00799590  0.61065182  0.47187680    -0.02700
C746        C  0.00880707  0.64169320  0.46780091    -0.02700
C747        C  0.49413416  0.66264811  0.50390899     0.07300
C748        C  0.47889250  0.65253555  0.54434393    -0.02900
Br749      Br  0.46100008  0.68077391  0.09687585    -0.01400
Br750      Br  0.45906917  0.60839699  0.10672397    -0.01500
Br751      Br  0.02956687  0.65547188  0.41208166    -0.00600
Br752      Br  0.02840958  0.58221755  0.42276597    -0.01400
O753        O  0.52371350  0.24562837  0.42982788    -0.75100
O754        O  0.52330368  0.24571766  0.07523947    -0.75200
O755        O  0.52051179  0.20374611  0.99943535    -0.75200
O756        O  0.52689911  0.28779811  0.50581420    -0.75300
O757        O  0.98064531  0.29815099  0.51035496    -0.75200
O758        O  0.97420435  0.21383268  0.00479738    -0.75200
O759        O  0.97714876  0.25611441  0.08048194    -0.75100
O760        O  0.97752195  0.25556455  0.43515135    -0.75200
Ni761      Ni  0.52519993  0.24540271  0.50241837     1.25400
Ni762      Ni  0.97576509  0.25631577  0.00794240     1.25400
C763        C  0.00065165  0.25066033  0.40831460     0.87100
C764        C  0.00011687  0.25042424  0.10199184     0.87000
C765        C  0.49635561  0.19498045  0.00194253     0.87000
C766        C  0.50490930  0.30679606  0.50762263     0.87200
O767        O  0.52310725  0.24432108  0.17943427    -0.75100
O768        O  0.52364063  0.24752572  0.32482641    -0.75200
O769        O  0.52208363  0.20318597  0.25170684    -0.75200
O770        O  0.52431678  0.28852322  0.25175119    -0.75300
O771        O  0.97839771  0.29600249  0.26149935    -0.75200
O772        O  0.97570558  0.21103395  0.25533916    -0.75200
O773        O  0.97734294  0.25392669  0.33070751    -0.75100
O774        O  0.97689354  0.25349417  0.18536327    -0.75200
Ni775      Ni  0.52492057  0.24559405  0.25179719     1.25400
Ni776      Ni  0.97548582  0.25383633  0.25836168     1.25400
C777        C  0.49998335  0.24930749  0.15825151     0.87100
C778        C  0.50058241  0.25075203  0.35195374     0.87000
C779        C  0.49840652  0.19312839  0.25435498     0.87000
C780        C  0.50161686  0.30657630  0.25565887     0.87200
O781        O  0.57518703  0.47774561  0.45867223    -0.81600
O782        O  0.93987730  0.48661433  0.47704855    -0.66300
O783        O  0.51760533  0.00084249  0.46084740    -1.12900
C784        C  0.50244928  0.01805174  0.11700978     1.05300
O785        O  0.92526651  0.02428931  0.03391291    -0.79500
O786        O  0.96693402  0.05958577  0.02205838    -0.67100
Ni787      Ni  0.54290819  0.46892612  0.42574933     1.34900
C788        C  0.99094079  0.06826622  0.01725263     0.84000
O789        O  0.97383784  0.48592028  0.39874173    -0.80000
O790        O  0.51310594  0.45872292  0.38926735    -0.90300
C791        C  0.92063063  0.00370787  0.50215126     0.83600
O792        O  0.53411675  0.44227707  0.47524850    -0.68500
O793        O  0.98689618  0.04107124  0.10736744    -0.87800
C794        C  0.51040670  0.43299367  0.48112223     0.84400
C795        C  0.99771805  0.48162229  0.37862221     1.06000
H796        H  0.98003655  0.48115983  0.04709812     0.37800
O797        O  0.98265209  0.50020105  0.03416550    -1.10400
O798        O  0.51349488  0.05101538  0.02268498    -0.67100
Ni799      Ni  0.52223847  0.00755060  0.02810953     1.26300
O800        O  0.98756162  0.44947402  0.47418690    -0.67300
O801        O  0.52633620  0.01407425  0.09676458    -0.79600
C802        C  0.57981485  0.49747824  0.99180169     0.83800
O803        O  0.56065236  0.01344373  0.01893902    -0.66800
Ni804      Ni  0.95726433  0.03197073  0.06920646     1.27400
Ni805      Ni  0.97811969  0.49292599  0.46726390     1.26100
H806        H  0.51994699  0.02000609  0.44796913     0.38400
O807        O  0.57311925  0.47682577  0.19433994    -0.81600
O808        O  0.93832519  0.48984196  0.23442251    -0.66300
O809        O  0.51568753  0.00233234  0.20884567    -1.12900
C810        C  0.51019960  0.00813068  0.36555445     1.05300
O811        O  0.92733428  0.02252982  0.30008114    -0.79500
O812        O  0.96971868  0.05730592  0.28448163    -0.67100
Ni813      Ni  0.53821963  0.47236081  0.16473209     1.34900
C814        C  0.99364487  0.06579026  0.27605727     0.84000
O815        O  0.96748658  0.49501926  0.15339919    -0.80000
O816        O  0.50560115  0.46711467  0.13273193    -0.90300
C817        C  0.92057572  0.00503117  0.26514295     0.83600
O818        O  0.53072448  0.44086485  0.20646946    -0.68500
O819        O  0.99492846  0.03244464  0.36116884    -0.87800
C820        C  0.50679587  0.43356127  0.21930320     0.84400
C821        C  0.99018498  0.49138144  0.12926554     1.06000
H822        H  0.98264662  0.47719221  0.29676292     0.37800
O823        O  0.98480272  0.49697034  0.28615031    -1.10400
O824        O  0.51630027  0.04791477  0.27751203    -0.67100
Ni825      Ni  0.52437305  0.00374505  0.27452425     1.26300
O826        O  0.98460701  0.45206377  0.21848309    -0.67300
O827        O  0.53300457  0.00411570  0.34163861    -0.79600
C828        C  0.57992797  0.49442165  0.22921607     0.83800
O829        O  0.56223975  0.00953136  0.26019565    -0.66800
Ni830      Ni  0.96222663  0.02719573  0.32916889     1.27400
Ni831      Ni  0.97620231  0.49573860  0.22042123     1.26100
H832        H  0.51768372  0.02217096  0.19861253     0.38400
O833        O  0.75167713  0.47533854  0.42027225    -0.75100
O834        O  0.75315121  0.47534237  0.06539318    -0.75200
O835        O  0.71269948  0.47665606  0.99797907    -0.75200
O836        O  0.79214081  0.47402774  0.98748903    -0.75300
O837        O  0.78779317  0.02417743  0.49322666    -0.75200
O838        O  0.70838611  0.02682077  0.50310104    -0.75200
O839        O  0.74869062  0.02539733  0.07071801    -0.75100
O840        O  0.74749928  0.02538986  0.42551754    -0.75200
Ni841      Ni  0.75256642  0.47359118  0.99261881     1.25400
Ni842      Ni  0.74794336  0.02718666  0.49831037     1.25400
C843        C  0.74931234  0.00036359  0.39876050     0.87100
C844        C  0.75120668  0.00035111  0.09221663     0.87000
C845        C  0.69747589  0.00217555  0.00163282     0.87000
C846        C  0.80305112  0.99868824  0.48928960     0.87200
O847        O  0.75421857  0.47527397  0.17011003    -0.75100
O848        O  0.75162529  0.47528812  0.31562975    -0.75200
O849        O  0.71326436  0.47562990  0.24407065    -0.75200
O850        O  0.79265847  0.47479945  0.24204501    -0.75300
O851        O  0.78730847  0.02498420  0.24712054    -0.75200
O852        O  0.70794511  0.02581191  0.24948071    -0.75200
O853        O  0.74643879  0.02536381  0.32093285    -0.75100
O854        O  0.74887113  0.02534405  0.17547733    -0.75200
Ni855      Ni  0.75313067  0.47349811  0.24272970     1.25400
Ni856      Ni  0.74745887  0.02711118  0.24841310     1.25400
C857        C  0.75156003  0.00031474  0.14859378     0.87100
C858        C  0.74899577  0.00033857  0.34245001     0.87000
C859        C  0.69756054  0.00084597  0.24640942     0.87000
C860        C  0.80300594  0.99978759  0.24537638     0.87200
C861        C  0.62347764  0.48377422  0.27413755    -0.02500
C862        C  0.60975236  0.49706874  0.23462209     0.07100
C863        C  0.62440002  0.01346625  0.20118025    -0.02700
C864        C  0.65292924  0.01561039  0.20605758    -0.02700
C865        C  0.66705224  0.50098607  0.24412256     0.07300
C866        C  0.65207397  0.48556657  0.27873237    -0.02900
Br867      Br  0.67040230  0.46803637  0.33386650    -0.01400
Br868      Br  0.60307785  0.46281046  0.32176829    -0.01500
Br869      Br  0.67269659  0.03796872  0.15952611    -0.01400
Br870      Br  0.60507358  0.03383059  0.14966852    -0.01400
C871        C  0.84871168  0.01536141  0.21496545    -0.02500
C872        C  0.83344103  0.99970853  0.24877703     0.07100
C873        C  0.84714707  0.48510115  0.28734043    -0.02700
C874        C  0.87584151  0.48625202  0.29198843    -0.02700
C875        C  0.89076433  0.00279528  0.25926499     0.07300
C876        C  0.87719350  0.01724735  0.22065377    -0.02900
Br877      Br  0.89756041  0.04040543  0.17642077    -0.01400
Br878      Br  0.83092006  0.03325724  0.15960482    -0.01500
Br879      Br  0.89501766  0.46450202  0.34228243    -0.01400
Br880      Br  0.82646726  0.46488173  0.33570354    -0.01400
C881        C  0.62311048  0.01817966  0.96459305    -0.02500
C882        C  0.60907397  0.50146478  0.99829575     0.07100
C883        C  0.62389629  0.48532576  0.53376238    -0.02700
C884        C  0.65266512  0.48657787  0.53644340    -0.02700
C885        C  0.66687076  0.00311911  0.00234197     0.07300
C886        C  0.65195564  0.01900186  0.96647675    -0.02900
Br887      Br  0.67121772  0.03975099  0.91684925    -0.01400
Br888      Br  0.60297017  0.03836867  0.91373754    -0.01500
Br889      Br  0.67242436  0.46566703  0.58698211    -0.01400
Br890      Br  0.60508206  0.45959235  0.57574376    -0.01400
C891        C  0.84802144  0.01505183  0.45623152    -0.02500
C892        C  0.83367911  0.99781095  0.48903470     0.07100
C893        C  0.84847783  0.48134735  0.02445235    -0.02700
C894        C  0.87711025  0.48295273  0.02805455    -0.02700
C895        C  0.89136938  0.99985319  0.49498154     0.07300
C896        C  0.87688987  0.01575740  0.45892299    -0.02900
Br897      Br  0.89653796  0.03976143  0.41507242    -0.01400
Br898      Br  0.82832775  0.03791079  0.40770378    -0.01500
Br899      Br  0.89656246  0.46365683  0.08051400    -0.01400
Br900      Br  0.82937431  0.45837703  0.07097851    -0.01400
C901        C  0.97816549  0.35824448  0.23682135    -0.02500
C902        C  0.50204295  0.33985693  0.25130230     0.07100
C903        C  0.52658645  0.35346843  0.25932041    -0.02700
C904        C  0.52753128  0.38422678  0.25154267    -0.02700
C905        C  0.50443752  0.40195719  0.23348379     0.07300
C906        C  0.97942703  0.38877081  0.22759347    -0.02900
Br907      Br  0.94618718  0.41129888  0.20486700    -0.01400
Br908      Br  0.94312027  0.34238916  0.22647706    -0.01500
Br909      Br  0.56069088  0.40186041  0.26868650    -0.01400
Br910      Br  0.55968988  0.33085912  0.28183069    -0.01400
C911        C  0.51200230  0.13901133  0.22386239    -0.02500
C912        C  0.49709246  0.16054142  0.25871833     0.07100
C913        C  0.98135452  0.15089510  0.29910229    -0.02700
C914        C  0.98029811  0.12000439  0.30435509    -0.02700
C915        C  0.99500339  0.09828194  0.26922938     0.07300
C916        C  0.51112922  0.10800176  0.22922816    -0.02900
Br917      Br  0.53155463  0.07936643  0.18054493    -0.01400
Br918      Br  0.53269902  0.15204886  0.16737844    -0.01500
Br919      Br  0.96000330  0.10776931  0.36218771    -0.01400
Br920      Br  0.96246756  0.17989384  0.34951513    -0.01400
C921        C  0.99282406  0.39186179  0.02972060    -0.02500
C922        C  0.50988053  0.40082487  0.49055877     0.07100
C923        C  0.52614381  0.37860888  0.45831578    -0.02700
C924        C  0.52450263  0.34792337  0.46413476    -0.02700
C925        C  0.50763656  0.33903450  0.50363615     0.07300
C926        C  0.99238002  0.36106218  0.03710857    -0.02900
Br927      Br  0.97193047  0.34898174  0.09452478    -0.01400
Br928      Br  0.97012401  0.42141668  0.07369148    -0.01500
Br929      Br  0.54377945  0.31825723  0.41517687    -0.01400
Br930      Br  0.54951899  0.38974893  0.40356057    -0.01400
C931        C  0.97799976  0.12163135  0.04831010    -0.02500
C932        C  0.99219606  0.10057849  0.01165532     0.07100
C933        C  0.50798193  0.11066460  0.97185408    -0.02700
C934        C  0.50879844  0.14170528  0.96778538    -0.02700
C935        C  0.99414344  0.16265833  0.00391518     0.07300
C936        C  0.97890959  0.15254566  0.04435922    -0.02900
Br937      Br  0.96095893  0.18076598  0.59683616    -0.01400
Br938      Br  0.95906582  0.10838758  0.60672580    -0.01500
Br939      Br  0.52953848  0.15548658  0.91204484    -0.00600
Br940      Br  0.52837259  0.08223154  0.92271509    -0.01400
O941        O  0.52372682  0.24562805  0.92981762    -0.75100
O942        O  0.52327374  0.24571400  0.57524865    -0.75200
O943        O  0.52049554  0.20374262  0.49943892    -0.75200
O944        O  0.52692764  0.28779956  0.00579609    -0.75300
O945        O  0.98067454  0.29815840  0.01034560    -0.75200
O946        O  0.97418774  0.21382129  0.50478061    -0.75200
O947        O  0.97711815  0.25610128  0.58048082    -0.75100
O948        O  0.97753545  0.25556837  0.93515858    -0.75200
Ni949      Ni  0.52522236  0.24540460  0.00240747     1.25400
Ni950      Ni  0.97574219  0.25630635  0.50793773     1.25400
C951        C  0.00066177  0.25066042  0.90831383     0.87100
C952        C  0.00008545  0.25041666  0.60199640     0.87000
C953        C  0.49634125  0.19497209  0.50193407     0.87000
C954        C  0.50493965  0.30680052  0.00760672     0.87200
O955        O  0.52308001  0.24431242  0.67943097    -0.75100
O956        O  0.52363781  0.24751941  0.82481716    -0.75200
O957        O  0.52206063  0.20318046  0.75170770    -0.75200
O958        O  0.52430829  0.28851428  0.75174141    -0.75300
O959        O  0.97838991  0.29600003  0.76151564    -0.75200
O960        O  0.97568259  0.21103590  0.75535694    -0.75200
O961        O  0.97734019  0.25392559  0.83072123    -0.75100
O962        O  0.97686688  0.25349487  0.68537772    -0.75200
Ni963      Ni  0.52490506  0.24558629  0.75179052     1.25400
Ni964      Ni  0.97547054  0.25383655  0.75837783     1.25400
C965        C  0.49995379  0.24930240  0.65825692     0.87100
C966        C  0.50058357  0.25074918  0.85195500     0.87000
C967        C  0.49838173  0.19312718  0.75436574     0.87000
C968        C  0.50161015  0.30657007  0.75566444     0.87200
O969        O  0.57518384  0.47779242  0.95860207    -0.81600
O970        O  0.93987794  0.48660318  0.97708594    -0.66300
O971        O  0.51759593  0.00085858  0.96083291    -1.12900
C972        C  0.50244329  0.01803025  0.61701646     1.05300
O973        O  0.92526319  0.02428009  0.53391150    -0.79500
O974        O  0.96693573  0.05957502  0.52207081    -0.67100
Ni975      Ni  0.54290081  0.46895330  0.92571098     1.34900
C976        C  0.99094388  0.06825328  0.51726613     0.84000
O977        O  0.97381775  0.48591190  0.89875894    -0.80000
O978        O  0.51309340  0.45873239  0.88925834    -0.90300
C979        C  0.92063227  0.00370643  0.00217341     0.83600
O980        O  0.53413596  0.44229634  0.97521557    -0.68500
O981        O  0.98688994  0.04105087  0.60737855    -0.87800
C982        C  0.51043093  0.43300373  0.98111424     0.84400
C983        C  0.99769367  0.48162583  0.87862436     1.06000
H984        H  0.98002929  0.48114770  0.54708919     0.37800
O985        O  0.98264850  0.50018975  0.53416358    -1.10400
O986        O  0.51349711  0.05100023  0.52269794    -0.67100
Ni987      Ni  0.52223824  0.00753485  0.52812458     1.26300
O988        O  0.98757763  0.44947748  0.97420289    -0.67300
O989        O  0.52633141  0.01405862  0.59677939    -0.79600
C990        C  0.57981806  0.49744237  0.49185319     0.83800
O991        O  0.56065419  0.01342312  0.51896552    -0.66800
Ni992      Ni  0.95726043  0.03195661  0.56920984     1.27400
Ni993      Ni  0.97811486  0.49292717  0.96727370     1.26100
H994        H  0.51992825  0.02002487  0.94795663     0.38400
O995        O  0.57310701  0.47682468  0.69438105    -0.81600
O996        O  0.93831510  0.48981407  0.73439817    -0.66300
O997        O  0.51567277  0.00231607  0.70885543    -1.12900
C998        C  0.51016124  0.00814216  0.86555764     1.05300
O999        O  0.92730546  0.02251396  0.80003401    -0.79500
O1000       O  0.96968487  0.05730439  0.78446655    -0.67100
Ni1001     Ni  0.53821524  0.47234781  0.66475439     1.34900
C1002       C  0.99361111  0.06579053  0.77604931     0.84000
O1003       O  0.96748214  0.49498798  0.65338422    -0.80000
O1004       O  0.50560362  0.46709259  0.63273645    -0.90300
C1005       C  0.92055821  0.00500177  0.76510413     0.83600
O1006       O  0.53072050  0.44085673  0.70649663    -0.68500
O1007       O  0.99488192  0.03245034  0.86116873    -0.87800
C1008       C  0.50679146  0.43355233  0.71932544     0.84400
C1009       C  0.99018305  0.49135560  0.62926024     1.06000
H1010       H  0.98262453  0.47718982  0.79676551     0.37800
O1011       O  0.98477842  0.49696765  0.78614695    -1.10400
O1012       O  0.51626736  0.04791707  0.77750536    -0.67100
Ni1013     Ni  0.52434799  0.00374614  0.77453954     1.26300
O1014       O  0.98460134  0.45205101  0.71849340    -0.67300
O1015       O  0.53296966  0.00413877  0.84165332    -0.79600
C1016       C  0.57990881  0.49442633  0.72925510     0.83800
O1017       O  0.56221507  0.00953997  0.76021989    -0.66800
Ni1018     Ni  0.96218930  0.02719134  0.82914676     1.27400
Ni1019     Ni  0.97618839  0.49571901  0.72041364     1.26100
H1020       H  0.51766670  0.02212130  0.69863615     0.38400
O1021       O  0.75168311  0.47532014  0.92028654    -0.75100
O1022       O  0.75315292  0.47532214  0.56537448    -0.75200
O1023       O  0.71269892  0.47665367  0.49797121    -0.75200
O1024       O  0.79213828  0.47402817  0.48745974    -0.75300
O1025       O  0.78779629  0.02417756  0.99321514    -0.75200
O1026       O  0.70838882  0.02682259  0.00308392    -0.75200
O1027       O  0.74868854  0.02537720  0.57072976    -0.75100
O1028       O  0.74750355  0.02537145  0.92550212    -0.75200
Ni1029     Ni  0.75256472  0.47359029  0.49260003     1.25400
Ni1030     Ni  0.74794633  0.02718747  0.99829512     1.25400
C1031       C  0.74931589  0.00033988  0.89875950     0.87100
C1032       C  0.75120355  0.00032566  0.59221336     0.87000
C1033       C  0.69747486  0.00217275  0.50164438     0.87000
C1034       C  0.80305365  0.99868803  0.98930456     0.87200
O1035       O  0.75419477  0.47523847  0.67010586    -0.75100
O1036       O  0.75161136  0.47525410  0.81563244    -0.75200
O1037       O  0.71324094  0.47561135  0.74408350    -0.75200
O1038       O  0.79263945  0.47474285  0.74203061    -0.75300
O1039       O  0.78730770  0.02492759  0.74710667    -0.75200
O1040       O  0.70794038  0.02579314  0.74948920    -0.75200
O1041       O  0.74644148  0.02532960  0.82092715    -0.75100
O1042       O  0.74886670  0.02530830  0.67547715    -0.75200
Ni1043     Ni  0.75310932  0.47346147  0.74272905     1.25400
Ni1044     Ni  0.74745737  0.02707435  0.74841013     1.25400
C1045       C  0.75154908  0.00028073  0.64859122     0.87100
C1046       C  0.74899346  0.00030623  0.84244855     0.87000
C1047       C  0.69754523  0.00083314  0.74642703     0.87000
C1048       C  0.80299654  0.99972515  0.74535513     0.87200
C1049       C  0.62345730  0.48378190  0.77418359    -0.02500
C1050       C  0.60973162  0.49707741  0.73466954     0.07100
C1051       C  0.62437805  0.01347736  0.70123078    -0.02700
C1052       C  0.65290763  0.01562033  0.70610532    -0.02700
C1053       C  0.66703402  0.50098598  0.74415737     0.07300
C1054       C  0.65205548  0.48556821  0.77877032    -0.02900
Br1055     Br  0.67038527  0.46803544  0.83390085    -0.01400
Br1056     Br  0.60305479  0.46282832  0.82182554    -0.01500
Br1057     Br  0.67266878  0.03799538  0.65959177    -0.01400
Br1058     Br  0.60504871  0.03384592  0.64972585    -0.01400
C1059       C  0.84869886  0.01528414  0.71490877    -0.02500
C1060       C  0.83343326  0.99963508  0.74873326     0.07100
C1061       C  0.84714489  0.48502913  0.78729191    -0.02700
C1062       C  0.87583672  0.48619607  0.79194309    -0.02700
C1063       C  0.89075169  0.00274583  0.75921814     0.07300
C1064       C  0.87717937  0.01717861  0.72059073    -0.02900
Br1065     Br  0.89754292  0.04031796  0.67632075    -0.01400
Br1066     Br  0.83090105  0.03316281  0.65953952    -0.01500
Br1067     Br  0.89502062  0.46445922  0.84224289    -0.01400
Br1068     Br  0.82647739  0.46478590  0.83563918    -0.01400
C1069       C  0.62311063  0.01812916  0.46459435    -0.02500
C1070       C  0.60907730  0.50143449  0.49833477     0.07100
C1071       C  0.62388958  0.48532880  0.03369634    -0.02700
C1072       C  0.65265874  0.48657238  0.03638989    -0.02700
C1073       C  0.66687078  0.00311317  0.50236914     0.07300
C1074       C  0.65195240  0.01897198  0.46648373    -0.02900
Br1075     Br  0.67120694  0.03972080  0.41684622    -0.01400
Br1076     Br  0.60297377  0.03825223  0.41366984    -0.01500
Br1077     Br  0.67240681  0.46563736  0.08691596    -0.01400
Br1078     Br  0.60506697  0.45957672  0.07563005    -0.01400
C1079       C  0.84803062  0.01501914  0.95621549    -0.02500
C1080       C  0.83368089  0.99781128  0.98906234     0.07100
C1081       C  0.84848448  0.48131358  0.52437673    -0.02700
C1082       C  0.87711604  0.48292239  0.52798324    -0.02700
C1083       C  0.89137083  0.99985129  0.99501041     0.07300
C1084       C  0.87689882  0.01572483  0.95890970    -0.02900
Br1085     Br  0.89655625  0.03968905  0.91500408    -0.01400
Br1086     Br  0.82834599  0.03783175  0.90762431    -0.01500
Br1087     Br  0.89657375  0.46359153  0.58040333    -0.01400
Br1088     Br  0.82939419  0.45829125  0.57083947    -0.01400
C1089       C  0.97815962  0.35823877  0.73684076    -0.02500
C1090       C  0.50203785  0.33984993  0.75131463     0.07100
C1091       C  0.52658169  0.35345996  0.75933555    -0.02700
C1092       C  0.52752573  0.38421949  0.75156786    -0.02700
C1093       C  0.50443241  0.40195019  0.73350902     0.07300
C1094       C  0.97942127  0.38876508  0.72761768    -0.02900
Br1095     Br  0.94617989  0.41129363  0.70489616    -0.01400
Br1096     Br  0.94311336  0.34238499  0.72649600    -0.01500
Br1097     Br  0.56068209  0.40185456  0.76872630    -0.01400
Br1098     Br  0.55968633  0.33084651  0.78183263    -0.01400
C1099       C  0.51197451  0.13901156  0.72386972    -0.02500
C1100       C  0.49706432  0.16054097  0.75872651     0.07100
C1101       C  0.98132413  0.15089409  0.79910755    -0.02700
C1102       C  0.98026835  0.12000311  0.80435852    -0.02700
C1103       C  0.99496939  0.09828221  0.76922601     0.07300
C1104       C  0.51109493  0.10800236  0.72922558    -0.02900
Br1105     Br  0.53150917  0.07936651  0.68052928    -0.01400
Br1106     Br  0.53268385  0.15204906  0.66740054    -0.01500
Br1107     Br  0.95998286  0.10776435  0.86219834    -0.01400
Br1108     Br  0.96243359  0.17989163  0.84951889    -0.01400
C1109       C  0.99279526  0.39185627  0.52973308    -0.02500
C1110       C  0.50991674  0.40083287  0.99055864     0.07100
C1111       C  0.52618875  0.37861705  0.95832581    -0.02700
C1112       C  0.52454579  0.34793043  0.96413872    -0.02700
C1113       C  0.50766912  0.33903983  0.00362445     0.07300
C1114       C  0.99235640  0.36105712  0.53713041    -0.02900
Br1115     Br  0.97193510  0.34897708  0.59457823    -0.01400
Br1116     Br  0.97009787  0.42141287  0.57370322    -0.01500
Br1117     Br  0.54383012  0.31826550  0.91518630    -0.01400
Br1118     Br  0.54957767  0.38975701  0.90358954    -0.01400
C1119       C  0.97799279  0.12162046  0.54830689    -0.02500
C1120       C  0.99220058  0.10056602  0.51166655     0.07100
C1121       C  0.50799593  0.11065179  0.47187666    -0.02700
C1122       C  0.50880704  0.14169318  0.46780075    -0.02700
C1123       C  0.99413412  0.16264811  0.50390890     0.07300
C1124       C  0.97889246  0.15253557  0.54434381    -0.02900
Br1125     Br  0.96100007  0.18077403  0.09687578    -0.01400
Br1126     Br  0.95906934  0.10839711  0.10672402    -0.01500
Br1127     Br  0.52956685  0.15547198  0.41208164    -0.00600
Br1128     Br  0.52840973  0.08221753  0.42276575    -0.01400
O1129       O  0.52371349  0.74562839  0.42982800    -0.75100
O1130       O  0.52330370  0.74571770  0.07523955    -0.75200
O1131       O  0.52051183  0.70374612  0.99943557    -0.75200
O1132       O  0.52689919  0.78779802  0.50581435    -0.75300
O1133       O  0.98064534  0.79815097  0.51035512    -0.75200
O1134       O  0.97420431  0.71383267  0.00479735    -0.75200
O1135       O  0.97714876  0.75611428  0.08048200    -0.75100
O1136       O  0.97752201  0.75556451  0.43515142    -0.75200
Ni1137     Ni  0.52519994  0.74540266  0.50241851     1.25400
Ni1138     Ni  0.97576508  0.75631575  0.00794246     1.25400
C1139       C  0.00065171  0.75066029  0.40831471     0.87100
C1140       C  0.00011688  0.75042417  0.10199191     0.87000
C1141       C  0.49635566  0.69498043  0.00194266     0.87000
C1142       C  0.50490938  0.80679601  0.50762280     0.87200
O1143       O  0.52310732  0.74432112  0.17943437    -0.75100
O1144       O  0.52364061  0.74752562  0.32482651    -0.75200
O1145       O  0.52208369  0.70318594  0.25170691    -0.75200
O1146       O  0.52431684  0.78852324  0.25175134    -0.75300
O1147       O  0.97839775  0.79600246  0.26149933    -0.75200
O1148       O  0.97570562  0.71103389  0.25533926    -0.75200
O1149       O  0.97734301  0.75392668  0.33070758    -0.75100
O1150       O  0.97689359  0.75349401  0.18536336    -0.75200
Ni1151     Ni  0.52492062  0.74559404  0.25179733     1.25400
Ni1152     Ni  0.97548588  0.75383626  0.25836173     1.25400
C1153       C  0.49998341  0.74930740  0.15825157     0.87100
C1154       C  0.50058240  0.75075198  0.35195386     0.87000
C1155       C  0.49840658  0.69312837  0.25435512     0.87000
C1156       C  0.50161691  0.80657629  0.25565889     0.87200
O1157       O  0.57518708  0.97774566  0.45867220    -0.81600
O1158       O  0.93987734  0.98661437  0.47704853    -0.66300
O1159       O  0.51760529  0.50084249  0.46084738    -1.12900
C1160       C  0.50244920  0.51805178  0.11700979     1.05300
O1161       O  0.92526644  0.52428932  0.03391297    -0.79500
O1162       O  0.96693402  0.55958570  0.02205831    -0.67100
Ni1163     Ni  0.54290824  0.96892612  0.42574933     1.34900
C1164       C  0.99094078  0.56826618  0.01725263     0.84000
O1165       O  0.97383789  0.98592024  0.39874178    -0.80000
O1166       O  0.51310601  0.95872286  0.38926737    -0.90300
C1167       C  0.92063058  0.50370785  0.50215126     0.83600
O1168       O  0.53411676  0.94227710  0.47524853    -0.68500
O1169       O  0.98689615  0.54107125  0.10736745    -0.87800
C1170       C  0.51040672  0.93299368  0.48112224     0.84400
C1171       C  0.99771809  0.98162223  0.37862221     1.06000
H1172       H  0.98003660  0.98115990  0.04709810     0.37800
O1173       O  0.98265213  0.00020109  0.03416547    -1.10400
O1174       O  0.51349482  0.55101531  0.02268496    -0.67100
Ni1175     Ni  0.52223843  0.50755057  0.02810958     1.26300
O1176       O  0.98756166  0.94947406  0.47418691    -0.67300
O1177       O  0.52633611  0.51407432  0.09676459    -0.79600
C1178       C  0.57981489  0.99747824  0.99180174     0.83800
O1179       O  0.56065232  0.51344371  0.01893899    -0.66800
Ni1180     Ni  0.95726430  0.53197074  0.06920647     1.27400
Ni1181     Ni  0.97811974  0.99292602  0.46726390     1.26100
H1182       H  0.51994692  0.52000609  0.44796911     0.38400
O1183       O  0.57311925  0.97682585  0.19433999    -0.81600
O1184       O  0.93832519  0.98984181  0.23442255    -0.66300
O1185       O  0.51568750  0.50233228  0.20884564    -1.12900
C1186       C  0.51019948  0.50813075  0.36555447     1.05300
O1187       O  0.92733429  0.52252989  0.30008120    -0.79500
O1188       O  0.96971873  0.55730592  0.28448160    -0.67100
Ni1189     Ni  0.53821966  0.97236086  0.16473211     1.34900
C1190       C  0.99364492  0.56579023  0.27605726     0.84000
O1191       O  0.96748660  0.99501925  0.15339919    -0.80000
O1192       O  0.50560119  0.96711463  0.13273196    -0.90300
C1193       C  0.92057572  0.50503126  0.26514298     0.83600
O1194       O  0.53072453  0.94086488  0.20646946    -0.68500
O1195       O  0.99492850  0.53244472  0.36116883    -0.87800
C1196       C  0.50679594  0.93356124  0.21930317     0.84400
C1197       C  0.99018500  0.99138145  0.12926555     1.06000
H1198       H  0.98264670  0.97719207  0.29676292     0.37800
O1199       O  0.98480272  0.99697026  0.28615031    -1.10400
O1200       O  0.51630029  0.54791471  0.27751199    -0.67100
Ni1201     Ni  0.52437298  0.50374500  0.27452425     1.26300
O1202       O  0.98460704  0.95206372  0.21848301    -0.67300
O1203       O  0.53300444  0.50411575  0.34163863    -0.79600
C1204       C  0.57992799  0.99442173  0.22921611     0.83800
O1205       O  0.56223971  0.50953120  0.26019567    -0.66800
Ni1206     Ni  0.96222666  0.52719579  0.32916892     1.27400
Ni1207     Ni  0.97620228  0.99573852  0.22042126     1.26100
H1208       H  0.51768370  0.52217089  0.19861246     0.38400
O1209       O  0.75167715  0.97533860  0.42027233    -0.75100
O1210       O  0.75315116  0.97534240  0.06539321    -0.75200
O1211       O  0.71269948  0.97665599  0.99797910    -0.75200
O1212       O  0.79214079  0.97402782  0.98748907    -0.75300
O1213       O  0.78779315  0.52417739  0.49322650    -0.75200
O1214       O  0.70838609  0.52682076  0.50310100    -0.75200
O1215       O  0.74869056  0.52539730  0.07071799    -0.75100
O1216       O  0.74749930  0.52538980  0.42551742    -0.75200
Ni1217     Ni  0.75256643  0.97359121  0.99261885     1.25400
Ni1218     Ni  0.74794332  0.52718662  0.49831030     1.25400
C1219       C  0.74931238  0.50036353  0.39876043     0.87100
C1220       C  0.75120667  0.50035108  0.09221662     0.87000
C1221       C  0.69747588  0.50217562  0.00163277     0.87000
C1222       C  0.80305109  0.49868821  0.48928953     0.87200
O1223       O  0.75421863  0.97527400  0.17011003    -0.75100
O1224       O  0.75162523  0.97528816  0.31562984    -0.75200
O1225       O  0.71326441  0.97562983  0.24407061    -0.75200
O1226       O  0.79265849  0.97479941  0.24204506    -0.75300
O1227       O  0.78730849  0.52498423  0.24712055    -0.75200
O1228       O  0.70794509  0.52581196  0.24948071    -0.75200
O1229       O  0.74643884  0.52536377  0.32093280    -0.75100
O1230       O  0.74887118  0.52534400  0.17547732    -0.75200
Ni1231     Ni  0.75313070  0.97349809  0.24272972     1.25400
Ni1232     Ni  0.74745890  0.52711117  0.24841309     1.25400
C1233       C  0.75156002  0.50031470  0.14859377     0.87100
C1234       C  0.74899584  0.50033853  0.34244996     0.87000
C1235       C  0.69756049  0.50084603  0.24640946     0.87000
C1236       C  0.80300594  0.49978762  0.24537635     0.87200
C1237       C  0.62347767  0.98377426  0.27413757    -0.02500
C1238       C  0.60975240  0.99706874  0.23462208     0.07100
C1239       C  0.62439997  0.51346629  0.20118028    -0.02700
C1240       C  0.65292922  0.51561044  0.20605761    -0.02700
C1241       C  0.66705228  0.00098603  0.24412252     0.07300
C1242       C  0.65207402  0.98556660  0.27873239    -0.02900
Br1243     Br  0.67040236  0.96803643  0.33386652    -0.01400
Br1244     Br  0.60307789  0.96281052  0.32176831    -0.01500
Br1245     Br  0.67269661  0.53796877  0.15952614    -0.01400
Br1246     Br  0.60507362  0.53383064  0.14966853    -0.01400
C1247       C  0.84871168  0.51536142  0.21496547    -0.02500
C1248       C  0.83344105  0.49970853  0.24877704     0.07100
C1249       C  0.84714708  0.98510113  0.28734039    -0.02700
C1250       C  0.87584149  0.98625202  0.29198839    -0.02700
C1251       C  0.89076434  0.50279533  0.25926505     0.07300
C1252       C  0.87719348  0.51724739  0.22065382    -0.02900
Br1253     Br  0.89756032  0.54040551  0.17642077    -0.01400
Br1254     Br  0.83092011  0.53325730  0.15960483    -0.01500
Br1255     Br  0.89501756  0.96450206  0.34228248    -0.01400
Br1256     Br  0.82646729  0.96488178  0.33570357    -0.01400
C1257       C  0.62311047  0.51817961  0.96459298    -0.02500
C1258       C  0.60907400  0.00146479  0.99829578     0.07100
C1259       C  0.62389627  0.98532578  0.53376257    -0.02700
C1260       C  0.65266511  0.98657784  0.53644350    -0.02700
C1261       C  0.66687075  0.50311915  0.00234199     0.07300
C1262       C  0.65195563  0.51900179  0.96647667    -0.02900
Br1263     Br  0.67121777  0.53975085  0.91684920    -0.01400
Br1264     Br  0.60297020  0.53836872  0.91373754    -0.01500
Br1265     Br  0.67242442  0.96566687  0.58698210    -0.01400
Br1266     Br  0.60508198  0.95959225  0.57574371    -0.01400
C1267       C  0.84802144  0.51505175  0.45623145    -0.02500
C1268       C  0.83367909  0.49781092  0.48903470     0.07100
C1269       C  0.84847786  0.98134741  0.02445235    -0.02700
C1270       C  0.87711028  0.98295279  0.02805456    -0.02700
C1271       C  0.89136933  0.49985318  0.49498156     0.07300
C1272       C  0.87688986  0.51575741  0.45892297    -0.02900
Br1273     Br  0.89653798  0.53976147  0.41507246    -0.01400
Br1274     Br  0.82832767  0.53791065  0.40770373    -0.01500
Br1275     Br  0.89656252  0.96365689  0.08051400    -0.01400
Br1276     Br  0.82937436  0.95837709  0.07097851    -0.01400
C1277       C  0.97816548  0.85824449  0.23682138    -0.02500
C1278       C  0.50204301  0.83985691  0.25130231     0.07100
C1279       C  0.52658651  0.85346844  0.25932045    -0.02700
C1280       C  0.52753133  0.88422679  0.25154267    -0.02700
C1281       C  0.50443757  0.90195718  0.23348383     0.07300
C1282       C  0.97942702  0.88877081  0.22759351    -0.02900
Br1283     Br  0.94618721  0.91129880  0.20486696    -0.01400
Br1284     Br  0.94312029  0.84238917  0.22647707    -0.01500
Br1285     Br  0.56069081  0.90186049  0.26868656    -0.01400
Br1286     Br  0.55968991  0.83085920  0.28183104    -0.01400
C1287       C  0.51200239  0.63901133  0.22386257    -0.02500
C1288       C  0.49709251  0.66054141  0.25871852     0.07100
C1289       C  0.98135458  0.65089509  0.29910246    -0.02700
C1290       C  0.98029816  0.62000438  0.30435523    -0.02700
C1291       C  0.99500344  0.59828192  0.26922943     0.07300
C1292       C  0.51112930  0.60800176  0.22922823    -0.02900
Br1293     Br  0.53155468  0.57936636  0.18054499    -0.01400
Br1294     Br  0.53269905  0.65204890  0.16737853    -0.01500
Br1295     Br  0.96000337  0.60776919  0.36218775    -0.01400
Br1296     Br  0.96246763  0.67989387  0.34951545    -0.01400
C1297       C  0.99282407  0.89186178  0.02972062    -0.02500
C1298       C  0.50988058  0.90082488  0.49055881     0.07100
C1299       C  0.52614389  0.87860890  0.45831592    -0.02700
C1300       C  0.52450272  0.84792334  0.46413492    -0.02700
C1301       C  0.50763664  0.83903447  0.50363632     0.07300
C1302       C  0.99238005  0.86106214  0.03710868    -0.02900
Br1303     Br  0.97193054  0.84898180  0.09452509    -0.01400
Br1304     Br  0.97012407  0.92141672  0.07369148    -0.01500
Br1305     Br  0.54377952  0.81825727  0.41517716    -0.01400
Br1306     Br  0.54951903  0.88974896  0.40356062    -0.01400
C1307       C  0.97799966  0.62163127  0.04831014    -0.02500
C1308       C  0.99219601  0.60057846  0.01165537     0.07100
C1309       C  0.50798193  0.61066456  0.97185413    -0.02700
C1310       C  0.50879843  0.64170525  0.96778541    -0.02700
C1311       C  0.99414335  0.66265831  0.00391529     0.07300
C1312       C  0.97890947  0.65254561  0.04435924    -0.02900
Br1313     Br  0.96095899  0.68076589  0.59683623    -0.01400
Br1314     Br  0.95906569  0.60838762  0.60672577    -0.01500
Br1315     Br  0.52953854  0.65548646  0.91204487    -0.00600
Br1316     Br  0.52837264  0.58223158  0.92271512    -0.01400
O1317       O  0.52372680  0.74562808  0.92981775    -0.75100
O1318       O  0.52327374  0.74571390  0.57524880    -0.75200
O1319       O  0.52049550  0.70374260  0.49943899    -0.75200
O1320       O  0.52692767  0.78779955  0.00579614    -0.75300
O1321       O  0.98067455  0.79815838  0.01034571    -0.75200
O1322       O  0.97418774  0.71382131  0.50478066    -0.75200
O1323       O  0.97711822  0.75610133  0.58048096    -0.75100
O1324       O  0.97753547  0.75556844  0.93515867    -0.75200
Ni1325     Ni  0.52522238  0.74540462  0.00240757     1.25400
Ni1326     Ni  0.97574223  0.75630637  0.50793783     1.25400
C1327       C  0.00066178  0.75066049  0.90831395     0.87100
C1328       C  0.00008551  0.75041666  0.60199653     0.87000
C1329       C  0.49634122  0.69497208  0.50193413     0.87000
C1330       C  0.50493969  0.80680050  0.00760682     0.87200
O1331       O  0.52308002  0.74431245  0.67943105    -0.75100
O1332       O  0.52363787  0.74751943  0.82481723    -0.75200
O1333       O  0.52206064  0.70318049  0.75170777    -0.75200
O1334       O  0.52430831  0.78851431  0.75174141    -0.75300
O1335       O  0.97838987  0.79600007  0.76151561    -0.75200
O1336       O  0.97568263  0.71103596  0.75535707    -0.75200
O1337       O  0.97734017  0.75392568  0.83072133    -0.75100
O1338       O  0.97686692  0.75349483  0.68537786    -0.75200
Ni1339     Ni  0.52490509  0.74558630  0.75179058     1.25400
Ni1340     Ni  0.97547055  0.75383660  0.75837792     1.25400
C1341       C  0.49995378  0.74930240  0.65825701     0.87100
C1342       C  0.50058362  0.75074924  0.85195512     0.87000
C1343       C  0.49838173  0.69312721  0.75436584     0.87000
C1344       C  0.50161016  0.80657008  0.75566443     0.87200
O1345       O  0.57518387  0.97779239  0.95860217    -0.81600
O1346       O  0.93987799  0.98660310  0.97708599    -0.66300
O1347       O  0.51759591  0.50085853  0.96083295    -1.12900
C1348       C  0.50244329  0.51803029  0.61701647     1.05300
O1349       O  0.92526314  0.52428009  0.53391145    -0.79500
O1350       O  0.96693565  0.55957503  0.52207086    -0.67100
Ni1351     Ni  0.54290086  0.96895332  0.92571103     1.34900
C1352       C  0.99094381  0.56825327  0.51726614     0.84000
O1353       O  0.97381776  0.98591178  0.89875892    -0.80000
O1354       O  0.51309347  0.95873237  0.88925834    -0.90300
C1355       C  0.92063221  0.50370645  0.00217343     0.83600
O1356       O  0.53413601  0.94229635  0.97521559    -0.68500
O1357       O  0.98688985  0.54105089  0.60737856    -0.87800
C1358       C  0.51043098  0.93300374  0.98111429     0.84400
C1359       C  0.99769368  0.98162577  0.87862435     1.06000
H1360       H  0.98002936  0.98114775  0.54708920     0.37800
O1361       O  0.98264856  0.00018977  0.53416358    -1.10400
O1362       O  0.51349709  0.55100023  0.52269791    -0.67100
Ni1363     Ni  0.52223825  0.50753486  0.52812455     1.26300
O1364       O  0.98757763  0.94947747  0.97420293    -0.67300
O1365       O  0.52633140  0.51405866  0.59677939    -0.79600
C1366       C  0.57981807  0.99744240  0.49185324     0.83800
O1367       O  0.56065420  0.51342314  0.51896546    -0.66800
Ni1368     Ni  0.95726035  0.53195659  0.56920982     1.27400
Ni1369     Ni  0.97811489  0.99292714  0.96727368     1.26100
H1370       H  0.51992824  0.52002477  0.94795669     0.38400
O1371       O  0.57310701  0.97682467  0.69438105    -0.81600
O1372       O  0.93831511  0.98981399  0.73439823    -0.66300
O1373       O  0.51567273  0.50231608  0.70885549    -1.12900
C1374       C  0.51016123  0.50814221  0.86555765     1.05300
O1375       O  0.92730543  0.52251402  0.80003398    -0.79500
O1376       O  0.96968487  0.55730436  0.78446649    -0.67100
Ni1377     Ni  0.53821526  0.97234775  0.66475440     1.34900
C1378       C  0.99361111  0.56579051  0.77604933     0.84000
O1379       O  0.96748218  0.99498797  0.65338422    -0.80000
O1380       O  0.50560362  0.96709253  0.63273649    -0.90300
C1381       C  0.92055818  0.50500183  0.76510407     0.83600
O1382       O  0.53072056  0.94085670  0.70649670    -0.68500
O1383       O  0.99488188  0.53245037  0.86116874    -0.87800
C1384       C  0.50679152  0.93355231  0.71932545     0.84400
C1385       C  0.99018310  0.99135559  0.62926024     1.06000
H1386       H  0.98262461  0.97718987  0.79676546     0.37800
O1387       O  0.98477845  0.99696768  0.78614692    -1.10400
O1388       O  0.51626739  0.54791703  0.77750538    -0.67100
Ni1389     Ni  0.52434800  0.50374612  0.77453957     1.26300
O1390       O  0.98460137  0.95205100  0.71849342    -0.67300
O1391       O  0.53296966  0.50413883  0.84165335    -0.79600
C1392       C  0.57990882  0.99442628  0.72925515     0.83800
O1393       O  0.56221508  0.50953999  0.76021984    -0.66800
Ni1394     Ni  0.96218926  0.52719136  0.82914675     1.27400
Ni1395     Ni  0.97618839  0.99571901  0.72041364     1.26100
H1396       H  0.51766656  0.52212137  0.69863622     0.38400
O1397       O  0.75168316  0.97532018  0.92028658    -0.75100
O1398       O  0.75315294  0.97532219  0.56537454    -0.75200
O1399       O  0.71269894  0.97665368  0.49797127    -0.75200
O1400       O  0.79213829  0.97402818  0.48745973    -0.75300
O1401       O  0.78779630  0.52417748  0.99321514    -0.75200
O1402       O  0.70838882  0.52682266  0.00308383    -0.75200
O1403       O  0.74868848  0.52537715  0.57072969    -0.75100
O1404       O  0.74750352  0.52537141  0.92550201    -0.75200
Ni1405     Ni  0.75256475  0.97359031  0.49260006     1.25400
Ni1406     Ni  0.74794633  0.52718746  0.99829507     1.25400
C1407       C  0.74931584  0.50033982  0.89875945     0.87100
C1408       C  0.75120352  0.50032562  0.59221330     0.87000
C1409       C  0.69747482  0.50217274  0.50164429     0.87000
C1410       C  0.80305367  0.49868795  0.98930454     0.87200
O1411       O  0.75419474  0.97523849  0.67010591    -0.75100
O1412       O  0.75161135  0.97525419  0.81563252    -0.75200
O1413       O  0.71324092  0.97561144  0.74408353    -0.75200
O1414       O  0.79263944  0.97474283  0.74203064    -0.75300
O1415       O  0.78730769  0.52492761  0.74710662    -0.75200
O1416       O  0.70794039  0.52579305  0.74948921    -0.75200
O1417       O  0.74644151  0.52532951  0.82092706    -0.75100
O1418       O  0.74886663  0.52530828  0.67547710    -0.75200
Ni1419     Ni  0.75310928  0.97346151  0.74272909     1.25400
Ni1420     Ni  0.74745735  0.52707430  0.74841010     1.25400
C1421       C  0.75154906  0.50028071  0.64859118     0.87100
C1422       C  0.74899346  0.50030615  0.84244848     0.87000
C1423       C  0.69754524  0.50083306  0.74642701     0.87000
C1424       C  0.80299655  0.49972517  0.74535514     0.87200
C1425       C  0.62345732  0.98378181  0.77418356    -0.02500
C1426       C  0.60973162  0.99707736  0.73466954     0.07100
C1427       C  0.62437808  0.51347739  0.70123079    -0.02700
C1428       C  0.65290764  0.51562034  0.70610534    -0.02700
C1429       C  0.66703401  0.00098601  0.74415736     0.07300
C1430       C  0.65205552  0.98556815  0.77877026    -0.02900
Br1431     Br  0.67038534  0.96803550  0.83390086    -0.01400
Br1432     Br  0.60305484  0.96282841  0.82182585    -0.01500
Br1433     Br  0.67266868  0.53799545  0.65959178    -0.01400
Br1434     Br  0.60504877  0.53384580  0.64972578    -0.01400
C1435       C  0.84869886  0.51528405  0.71490866    -0.02500
C1436       C  0.83343326  0.49963507  0.74873327     0.07100
C1437       C  0.84714491  0.98502910  0.78729187    -0.02700
C1438       C  0.87583670  0.98619608  0.79194307    -0.02700
C1439       C  0.89075169  0.50274583  0.75921809     0.07300
C1440       C  0.87717936  0.51717854  0.72059062    -0.02900
Br1441     Br  0.89754280  0.54031802  0.67632073    -0.01400
Br1442     Br  0.83090095  0.53316285  0.65953957    -0.01500
Br1443     Br  0.89502066  0.96445928  0.84224291    -0.01400
Br1444     Br  0.82647742  0.96478595  0.83563920    -0.01400
C1445       C  0.62311063  0.51812914  0.46459427    -0.02500
C1446       C  0.60907731  0.00143455  0.49833490     0.07100
C1447       C  0.62388960  0.98532882  0.03369630    -0.02700
C1448       C  0.65265873  0.98657234  0.03638983    -0.02700
C1449       C  0.66687075  0.50311313  0.50236901     0.07300
C1450       C  0.65195240  0.51897193  0.46648357    -0.02900
Br1451     Br  0.67120701  0.53972068  0.41684613    -0.01400
Br1452     Br  0.60297381  0.53825212  0.41366975    -0.01500
Br1453     Br  0.67240670  0.96563739  0.08691602    -0.01400
Br1454     Br  0.60506699  0.95957676  0.07563008    -0.01400
C1455       C  0.84803055  0.51501913  0.95621554    -0.02500
C1456       C  0.83368087  0.49781121  0.98906235     0.07100
C1457       C  0.84848452  0.98131353  0.52437664    -0.02700
C1458       C  0.87711607  0.98292241  0.52798321    -0.02700
C1459       C  0.89137078  0.49985127  0.99501041     0.07300
C1460       C  0.87689877  0.51572484  0.95890974    -0.02900
Br1461     Br  0.89655611  0.53968910  0.91500410    -0.01400
Br1462     Br  0.82834588  0.53783161  0.90762429    -0.01500
Br1463     Br  0.89657380  0.96359158  0.58040335    -0.01400
Br1464     Br  0.82939429  0.95829106  0.57083913    -0.01400
C1465       C  0.97815957  0.85823880  0.73684078    -0.02500
C1466       C  0.50203785  0.83984995  0.75131465     0.07100
C1467       C  0.52658169  0.85346000  0.75933562    -0.02700
C1468       C  0.52752574  0.88421949  0.75156794    -0.02700
C1469       C  0.50443244  0.90195019  0.73350901     0.07300
C1470       C  0.97942128  0.88876511  0.72761768    -0.02900
Br1471     Br  0.94617993  0.91129369  0.70489615    -0.01400
Br1472     Br  0.94311326  0.84238508  0.72649602    -0.01500
Br1473     Br  0.56068208  0.90185462  0.76872663    -0.01400
Br1474     Br  0.55968635  0.83084656  0.78183262    -0.01400
C1475       C  0.51197452  0.63901160  0.72386975    -0.02500
C1476       C  0.49706432  0.66054101  0.75872655     0.07100
C1477       C  0.98132414  0.65089412  0.79910760    -0.02700
C1478       C  0.98026836  0.62000313  0.80435858    -0.02700
C1479       C  0.99496939  0.59828222  0.76922605     0.07300
C1480       C  0.51109491  0.60800237  0.72922555    -0.02900
Br1481     Br  0.53150922  0.57936644  0.68052933    -0.01400
Br1482     Br  0.53268390  0.65204911  0.66740058    -0.01500
Br1483     Br  0.95998274  0.60776441  0.86219830    -0.01400
Br1484     Br  0.96243364  0.67989170  0.84951893    -0.01400
C1485       C  0.99279526  0.89185626  0.52973311    -0.02500
C1486       C  0.50991675  0.90083287  0.99055873     0.07100
C1487       C  0.52618868  0.87861704  0.95832585    -0.02700
C1488       C  0.52454581  0.84793045  0.96413886    -0.02700
C1489       C  0.50766916  0.83903983  0.00362463     0.07300
C1490       C  0.99235644  0.86105713  0.53713051    -0.02900
Br1491     Br  0.97193514  0.84897712  0.59457830    -0.01400
Br1492     Br  0.97009775  0.92141290  0.57370318    -0.01500
Br1493     Br  0.54383020  0.81826553  0.91518657    -0.01400
Br1494     Br  0.54957754  0.88975705  0.90358949    -0.01400
C1495       C  0.97799282  0.62162044  0.54830701    -0.02500
C1496       C  0.99220057  0.60056603  0.51166667     0.07100
C1497       C  0.50799585  0.61065182  0.47187676    -0.02700
C1498       C  0.50880706  0.64169318  0.46780089    -0.02700
C1499       C  0.99413417  0.66264813  0.50390897     0.07300
C1500       C  0.97889254  0.65253556  0.54434394    -0.02900
Br1501     Br  0.96099993  0.68077390  0.09687582    -0.01400
Br1502     Br  0.95906922  0.60839697  0.10672400    -0.01500
Br1503     Br  0.52956691  0.65547187  0.41208169    -0.00600
Br1504     Br  0.52840962  0.58221755  0.42276599    -0.01400
loop_ 
_geom_bond_atom_site_label_1 
_geom_bond_atom_site_label_2 
_geom_bond_distance 
_geom_bond_site_symmetry_2 
_ccdc_geom_bond_type 
O1           Ni9   1.961       .  S
O1          C763   1.289       .  A
O2         Ni197   1.957       .  S
O2          C764   1.289       .  A
O3         Ni197   1.906   1_556  S
O3           C13   1.278   1_456  A
O4           Ni9   1.909       .  S
O4           C14   1.279       .  A
O5         Ni198   1.917       .  S
O5          C766   1.281       .  A
O6          Ni10   1.912       .  S
O6          C765   1.280       .  A
O7          Ni10   1.959       .  S
O7           C12   1.289       .  A
O8         Ni198   1.955       .  S
O8           C11   1.288       .  A
Ni9         O190   1.957       .  S
Ni9         O191   1.906       .  S
Ni9        Ni950   2.383   1_455  S
Ni10        O193   1.917       .  S
Ni10        O196   1.955   1_554  S
Ni10       Ni949   2.383       .  S
C11         O753   1.289       .  A
C11         C778   1.518       .  S
C12         O754   1.289       .  A
C12         C777   1.518       .  S
C13         O758   1.280       .  A
C13         C935   1.470       .  S
C14         O757   1.281   1_455  A
C14         C173   1.477       .  S
O15         Ni23   1.953       .  S
O15          C25   1.287   1_455  A
O16         Ni23   1.961       .  S
O16          C26   1.289       .  A
O17         Ni23   1.922       .  S
O17          C27   1.282   1_455  A
O18         Ni23   1.921       .  S
O18          C28   1.281       .  A
O19         Ni24   1.910       .  S
O19         C780   1.277       .  A
O20         Ni24   1.915       .  S
O20         C779   1.280       .  A
O21         Ni24   1.955       .  S
O21         C778   1.288       .  A
O22         Ni24   1.962       .  S
O22         C777   1.290       .  A
Ni23       Ni776   2.375   1_455  S
Ni24       Ni775   2.375       .  S
C25         O774   1.290       .  A
C25         C764   1.518   1_655  S
C26         O773   1.288   1_455  A
C26         C763   1.518       .  S
C27         O772   1.280       .  A
C27         C160   1.481       .  S
C28         O771   1.277   1_455  A
C28         C150   1.506       .  S
O29         Ni35   1.911       .  S
O29         C238   1.268       .  A
O30         Ni53   1.914       .  S
O30         C415   1.270       .  A
O31          H54   0.962       .  S
O31        Ni411   1.934   1_545  S
O31       Ni1181   1.987   1_445  S
O31        Ni235   1.850       .  S
C32          O49   1.240       .  A
C32         O793   1.252   1_455  A
C32        C1197   1.444   1_445  S
O33         Ni52   1.918       .  S
O33         C227   1.270       .  A
O34         Ni52   1.902       .  S
O34          C36   1.272       .  A
Ni35         O38   1.877       .  S
Ni35         O40   1.905       .  S
Ni35        O407   1.934       .  S
C36         O798   1.282       .  A
C36         C180   1.473       .  S
O37         Ni53   1.881       .  S
O37          C43   1.239       .  A
O38         C795   1.252   1_455  A
C39         O406   1.270   1_545  A
C39         O221   1.270       .  A
C39         C143   1.471   1_545  S
O40          C42   1.273       .  A
O41         Ni52   1.882       .  S
O41         C784   1.252       .  A
C42         O800   1.285   1_455  A
C42         C170   1.482       .  S
C43         O790   1.252       .  A
C43        C1186   1.449       .  S
H44          O45   0.960       .  S
O45        Ni241   1.842   1_554  S
O45       Ni1175   1.984       .  S
O45        Ni428   1.931       .  S
O46         Ni47   1.960       .  S
O46         C788   1.282   1_455  A
Ni47         O51   1.916       .  S
Ni47         O49   1.880       .  S
Ni47        O219   1.850   1_554  S
Ni47       O1173   1.984   1_455  S
O48         Ni53   1.969       .  S
O48         C794   1.285       .  A
C50         O217   1.268       .  A
C50         O427   1.270   1_556  A
C50         C130   1.469       .  S
O51         C426   1.270   1_544  A
Ni52        O421   1.931       .  S
Ni53       O1159   1.987       .  S
Ni53        O233   1.842       .  S
O55         Ni61   1.936       .  S
O55          C76   1.274       .  A
O56         Ni79   1.906       .  S
O56         C441   1.266       .  A
O57          H80   0.960       .  S
O57         Ni73   1.840       .  S
O57        Ni437   1.931   1_545  S
O57       Ni1207   1.981   1_445  S
C58          O75   1.236       .  A
C58         O819   1.258   1_455  A
C58        C1171   1.449   1_445  S
O59         Ni78   1.931       .  S
O59          C65   1.272       .  A
O60         Ni78   1.913       .  S
O60          C62   1.275       .  A
Ni61         O64   1.874       .  S
Ni61         O66   1.911       .  S
Ni61        O433   1.931       .  S
C62         O824   1.284       .  A
C62         C163   1.488       .  S
O63         Ni79   1.876       .  S
O63          C69   1.235       .  A
O64         C821   1.255   1_455  A
C65         O432   1.266   1_545  A
C65         C123   1.477       .  S
O66          C68   1.277       .  A
O67         Ni78   1.878       .  S
O67         C810   1.258       .  A
C68         O826   1.279   1_455  A
C68         C153   1.504       .  S
C69         O816   1.255       .  A
C69        C1160   1.444       .  S
H70          O71   0.963       .  S
O71         Ni79   1.840       .  S
O71       Ni1201   1.988       .  S
O71        Ni454   1.923       .  S
O72         Ni73   1.968       .  S
O72         C814   1.284   1_455  A
Ni73         O77   1.905       .  S
Ni73         O75   1.877       .  S
Ni73       O1199   1.988   1_445  S
O74         Ni79   1.949       .  S
O74         C820   1.279       .  A
C76         O453   1.267       .  A
C76         C110   1.479       .  S
O77         C452   1.267   1_545  A
Ni78        O447   1.923   1_545  S
Ni79       O1185   1.981       .  S
O81        Ni277   1.956       .  S
O81         C467   1.288       .  A
O82         Ni89   1.959   1_554  S
O82         C468   1.289       .  A
O83         Ni89   1.917       .  S
O83         C469   1.281   1_556  A
O84         Ni89   1.918       .  S
O84         C658   1.281       .  A
O85         Ni90   1.916       .  S
O85          C94   1.280   1_545  A
O86         Ni90   1.916       .  S
O86         C281   1.280       .  A
O87        Ni278   1.959   1_554  S
O87          C92   1.289       .  A
O88         Ni90   1.959       .  S
O88          C91   1.289       .  A
Ni89        O269   1.957       .  S
Ni89       Ni654   2.382       .  S
Ni90        O275   1.959       .  S
Ni90       Ni653   2.382   1_545  S
C91         O457   1.288   1_545  A
C91         C106   1.517       .  S
C92         O458   1.289   1_545  A
C92         C105   1.519       .  S
C93         O459   1.281   1_544  A
C93         O274   1.280       .  A
C93         C133   1.478       .  S
C94         O648   1.281       .  A
C94         C140   1.480       .  S
O95        Ni103   1.960       .  S
O95         C481   1.289       .  A
O96        Ni103   1.957       .  S
O96         C482   1.289       .  A
O97        Ni103   1.921       .  S
O97         C483   1.281       .  A
O98        Ni103   1.922       .  S
O98         C484   1.281       .  A
O99        Ni104   1.920       .  S
O99         C108   1.281   1_545  A
O100       Ni104   1.921       .  S
O100        C107   1.281       .  A
O101       Ni104   1.957       .  S
O101        C106   1.288       .  A
O102       Ni104   1.958       .  S
O102        C105   1.289       .  A
Ni103      Ni480   2.381       .  S
Ni104      Ni479   2.381   1_545  S
C105        O471   1.289   1_545  A
C106        O472   1.289   1_545  A
C107        O473   1.281   1_545  A
C107        C489   1.482       .  S
C108        O474   1.281       .  A
C108        C120   1.482       .  S
C109        C110   1.410       .  A
C109        C114   1.409       .  A
C109       Br116   1.930       .  S
C110        C487   1.409       .  A
C111        C112   1.410       .  A
C111        C486   1.409   1_545  A
C111       Br118   1.929       .  S
C112        C489   1.414       .  A
C112       Br117   1.932       .  S
C113        C483   1.482       .  S
C113        C114   1.412       .  A
C113        C488   1.414       .  A
C114       Br115   1.930       .  S
C119        C120   1.411   1_545  A
C119        C124   1.409       .  A
C119       Br126   1.930       .  S
C120        C497   1.414       .  A
C121        C122   1.410       .  A
C121        C496   1.414       .  A
C121       Br128   1.931       .  S
C122        C499   1.408       .  A
C122       Br127   1.930       .  S
C123        C124   1.409       .  A
C123        C498   1.408   1_545  A
C124       Br125   1.931       .  S
C129        C134   1.406       .  A
C129        C506   1.407       .  A
C129       Br136   1.931       .  S
C130        C505   1.407       .  A
C130        C319   1.407   1_556  A
C131        C132   1.408       .  A
C131        C318   1.407       .  A
C131       Br138   1.931       .  S
C132        C697   1.413       .  A
C132       Br137   1.931       .  S
C133        C134   1.413   1_554  A
C133        C696   1.413   1_545  A
C134       Br135   1.933       .  S
C139        C140   1.414   1_545  A
C139        C144   1.409       .  A
C139       Br146   1.931       .  S
C140        C705   1.414       .  A
C141        C142   1.406       .  A
C141        C704   1.414   1_554  A
C141       Br148   1.933       .  S
C142        C707   1.406   1_554  A
C142       Br147   1.931       .  S
C143        C144   1.407   1_565  A
C143        C706   1.406       .  A
C144       Br145   1.930       .  S
C149        C154   1.413       .  A
C149        C902   1.425       .  A
C149       Br156   1.946       .  S
C150        C151   1.421       .  A
C150        C901   1.425   1_455  A
C151        C152   1.412       .  A
C151       Br158   1.939       .  S
C152        C153   1.419       .  A
C152       Br157   1.940       .  S
C153        C906   1.423   1_455  A
C154        C905   1.423       .  A
C154       Br155   1.945       .  S
C159        C160   1.410   1_455  A
C159        C164   1.411       .  A
C159       Br166   1.932       .  S
C160        C913   1.411       .  A
C161        C162   1.407       .  A
C161        C912   1.411       .  A
C161       Br168   1.935       .  S
C162        C163   1.415       .  A
C162       Br167   1.937       .  S
C163        C916   1.415       .  A
C164        C915   1.415   1_455  A
C164       Br165   1.924       .  S
C169        C174   1.409       .  A
C169       C1110   1.411   1_554  A
C169       Br176   1.922       .  S
C170        C171   1.415       .  A
C170       C1109   1.411   1_455  A
C171        C172   1.405       .  A
C171       Br178   1.934       .  S
C172        C173   1.410       .  A
C172       Br177   1.935       .  S
C173       C1114   1.409   1_455  A
C174       C1113   1.409       .  A
C174       Br175   1.929       .  S
C179        C180   1.414       .  A
C179        C184   1.402       .  A
C179       Br374   1.935       .  S
C180        C933   1.409   1_554  A
C181        C182   1.407       .  A
C181        C932   1.409   1_456  A
C181       Br188   1.926       .  S
C182        C935   1.411   1_456  A
C182       Br187   1.932       .  S
C183        C765   1.470       .  S
C183        C184   1.409       .  A
C183        C934   1.411   1_554  A
C184       Br373   1.936       .  S
Br185       C372   1.936       .  S
Br186       C367   1.935       .  S
O189       Ni197   1.961   1_556  S
O189        C951   1.289       .  A
O190        C952   1.289       .  A
O191        C201   1.278   1_455  A
O192       Ni197   1.909       .  S
O192        C202   1.279       .  A
O193        C954   1.281       .  A
O194       Ni198   1.912       .  S
O194        C953   1.280       .  A
O195       Ni198   1.959       .  S
O195        C200   1.289       .  A
O196        C199   1.288       .  A
Ni197      Ni762   2.383   1_455  S
Ni198      Ni761   2.383       .  S
C199        O941   1.289       .  A
C199        C966   1.518       .  S
C200        O942   1.289       .  A
C200        C965   1.518       .  S
C201        O946   1.280       .  A
C201       C1123   1.470       .  S
C202        O945   1.281   1_455  A
C202        C361   1.477       .  S
O203       Ni211   1.953       .  S
O203        C213   1.287   1_455  A
O204       Ni211   1.961       .  S
O204        C214   1.289       .  A
O205       Ni211   1.922       .  S
O205        C215   1.282   1_455  A
O206       Ni211   1.921       .  S
O206        C216   1.281       .  A
O207       Ni212   1.910       .  S
O207        C968   1.277       .  A
O208       Ni212   1.915       .  S
O208        C967   1.280       .  A
O209       Ni212   1.955       .  S
O209        C966   1.288       .  A
O210       Ni212   1.962       .  S
O210        C965   1.290       .  A
Ni211      Ni964   2.375   1_455  S
Ni212      Ni963   2.375       .  S
C213        O962   1.290       .  A
C213        C952   1.518   1_655  S
C214        O961   1.288   1_455  A
C214        C951   1.518       .  S
C215        O960   1.280       .  A
C215        C348   1.481       .  S
C216        O959   1.277   1_455  A
C216        C338   1.506       .  S
O217       Ni223   1.911       .  S
O218       Ni241   1.914       .  S
O218        C603   1.270   1_556  A
O219        H242   0.962       .  S
O219       Ni599   1.934   1_545  S
O219      Ni1369   1.987   1_445  S
C220        O237   1.240       .  A
C220        O981   1.252   1_455  A
C220       C1385   1.444   1_445  S
O221       Ni240   1.918       .  S
O222       Ni240   1.902       .  S
O222        C224   1.272       .  A
Ni223       O226   1.877       .  S
Ni223       O228   1.905       .  S
Ni223       O595   1.934       .  S
C224        O986   1.282       .  A
C224        C368   1.473       .  S
O225       Ni241   1.881       .  S
O225        C231   1.239       .  A
O226        C983   1.252   1_455  A
C227        O594   1.270   1_544  A
C227        C331   1.471   1_544  S
O228        C230   1.273       .  A
O229       Ni240   1.881       .  S
O229        C972   1.252       .  A
C230        O988   1.285   1_455  A
C230        C358   1.482       .  S
C231        O978   1.252       .  A
C231       C1374   1.449       .  S
H232        O233   0.960       .  S
O233      Ni1363   1.984       .  S
O233       Ni616   1.931       .  S
O234       Ni235   1.960       .  S
O234        C976   1.282   1_455  A
Ni235       O239   1.916       .  S
Ni235       O237   1.880       .  S
Ni235      O1361   1.984   1_455  S
O236       Ni241   1.969       .  S
O236        C982   1.285       .  A
C238        O615   1.270       .  A
C238        C318   1.469       .  S
O239        C614   1.270   1_545  A
Ni240       O609   1.931       .  S
Ni241      O1347   1.987       .  S
O243       Ni249   1.936       .  S
O243        C264   1.274       .  A
O244       Ni267   1.905       .  S
O244        C629   1.266       .  A
O245        H268   0.959       .  S
O245       Ni625   1.931   1_545  S
O245      Ni1395   1.981   1_445  S
O245       Ni261   1.840       .  S
C246        O263   1.236       .  A
C246       O1007   1.258   1_455  A
C246       C1359   1.449   1_445  S
O247       Ni266   1.931       .  S
O247        C253   1.272       .  A
O248       Ni266   1.913       .  S
O248        C250   1.275       .  A
Ni249       O252   1.874       .  S
Ni249       O254   1.910       .  S
Ni249       O621   1.931       .  S
C250       O1012   1.284       .  A
C250        C351   1.488       .  S
O251       Ni267   1.876       .  S
O251        C257   1.235       .  A
O252       C1009   1.255   1_455  A
C253        O620   1.266   1_545  A
C253        C311   1.477       .  S
O254        C256   1.277       .  A
O255       Ni266   1.878       .  S
O255        C998   1.258       .  A
C256       O1014   1.279   1_455  A
C256        C341   1.504       .  S
C257       O1004   1.255       .  A
C257       C1348   1.444       .  S
H258        O259   0.963       .  S
O259       Ni267   1.840       .  S
O259      Ni1389   1.988       .  S
O259       Ni642   1.923       .  S
O260       Ni261   1.968       .  S
O260       C1002   1.284   1_455  A
Ni261       O265   1.905       .  S
Ni261       O263   1.877       .  S
Ni261      O1387   1.988   1_445  S
O262       Ni267   1.949       .  S
O262       C1008   1.279       .  A
C264        O641   1.267       .  A
C264        C298   1.479       .  S
O265        C640   1.267   1_545  A
Ni266       O635   1.923   1_545  S
Ni267      O1373   1.981       .  S
O269        C655   1.288       .  A
O270       Ni277   1.959       .  S
O270        C656   1.289       .  A
O271       Ni277   1.917       .  S
O271        C657   1.281       .  A
O272       Ni277   1.918       .  S
O272        C470   1.281       .  A
O273       Ni278   1.916       .  S
O273        C282   1.280   1_545  A
O274       Ni278   1.916   1_554  S
O275        C280   1.289       .  A
O276       Ni278   1.959       .  S
O276        C279   1.289       .  A
Ni277      Ni466   2.382       .  S
Ni278      Ni465   2.382   1_545  S
C279        O645   1.288   1_545  A
C279        C294   1.517       .  S
C280        O646   1.289   1_545  A
C280        C293   1.519       .  S
C281        O647   1.281   1_545  A
C281        C321   1.478       .  S
C282        O460   1.281       .  A
C282        C328   1.480       .  S
O283       Ni291   1.960       .  S
O283        C669   1.289       .  A
O284       Ni291   1.957       .  S
O284        C670   1.289       .  A
O285       Ni291   1.921       .  S
O285        C671   1.281       .  A
O286       Ni291   1.922       .  S
O286        C672   1.281       .  A
O287       Ni292   1.920       .  S
O287        C296   1.281   1_545  A
O288       Ni292   1.921       .  S
O288        C295   1.281       .  A
O289       Ni292   1.957       .  S
O289        C294   1.288       .  A
O290       Ni292   1.958       .  S
O290        C293   1.289       .  A
Ni291      Ni668   2.381       .  S
Ni292      Ni667   2.381   1_545  S
C293        O659   1.289   1_545  A
C294        O660   1.289   1_545  A
C295        O661   1.281   1_545  A
C295        C677   1.482       .  S
C296        O662   1.281       .  A
C296        C308   1.482       .  S
C297        C298   1.410       .  A
C297        C302   1.410       .  A
C297       Br304   1.930       .  S
C298        C675   1.409       .  A
C299        C674   1.409   1_545  A
C299        C300   1.410       .  A
C299       Br306   1.929       .  S
C300        C677   1.414       .  A
C300       Br305   1.932       .  S
C301        C671   1.482       .  S
C301        C676   1.414       .  A
C301        C302   1.412       .  A
C302       Br303   1.930       .  S
C307        C308   1.411   1_545  A
C307        C312   1.409       .  A
C307       Br314   1.930       .  S
C308        C685   1.414       .  A
C309        C684   1.414       .  A
C309        C310   1.410       .  A
C309       Br316   1.931       .  S
C310        C687   1.408       .  A
C310       Br315   1.930       .  S
C311        C686   1.408   1_545  A
C311        C312   1.409       .  A
C312       Br313   1.931       .  S
C317        C694   1.407       .  A
C317        C322   1.406       .  A
C317       Br324   1.931       .  S
C318        C693   1.407       .  A
C319        C320   1.408       .  A
C319       Br326   1.931       .  S
C320        C509   1.413       .  A
C320       Br325   1.931       .  S
C321        C508   1.413   1_545  A
C321        C322   1.413       .  A
C322       Br323   1.933       .  S
C327        C328   1.414   1_545  A
C327        C332   1.409       .  A
C327       Br334   1.931       .  S
C328        C517   1.414   1_556  A
C329        C516   1.414       .  A
C329        C330   1.406       .  A
C329       Br336   1.933       .  S
C330        C519   1.406       .  A
C330       Br335   1.931       .  S
C331        C518   1.406   1_556  A
C331        C332   1.407   1_565  A
C332       Br333   1.930       .  S
C337       C1090   1.425       .  A
C337        C342   1.413       .  A
C337       Br344   1.946       .  S
C338       C1089   1.425   1_455  A
C338        C339   1.421       .  A
C339        C340   1.412       .  A
C339       Br346   1.939       .  S
C340        C341   1.419       .  A
C340       Br345   1.940       .  S
C341       C1094   1.423   1_455  A
C342       C1093   1.423       .  A
C342       Br343   1.945       .  S
C347        C348   1.410   1_455  A
C347        C352   1.411       .  A
C347       Br354   1.932       .  S
C348       C1101   1.411       .  A
C349       C1100   1.411       .  A
C349        C350   1.407       .  A
C349       Br356   1.935       .  S
C350        C351   1.415       .  A
C350       Br355   1.937       .  S
C351       C1104   1.415       .  A
C352       C1103   1.415   1_455  A
C352       Br353   1.924       .  S
C357        C922   1.411       .  A
C357        C362   1.409       .  A
C357       Br364   1.922       .  S
C358        C921   1.411   1_456  A
C358        C359   1.415       .  A
C359        C360   1.405       .  A
C359       Br366   1.934       .  S
C360        C361   1.410   1_556  A
C360       Br365   1.935       .  S
C361        C926   1.409   1_455  A
C362        C925   1.409       .  A
C362       Br363   1.929       .  S
C367        C368   1.414       .  A
C367        C372   1.402       .  A
C368       C1121   1.409       .  A
C369       C1120   1.409   1_455  A
C369        C370   1.407       .  A
C369       Br376   1.926       .  S
C370       C1123   1.411   1_455  A
C370       Br375   1.932       .  S
C371        C953   1.470       .  S
C371       C1122   1.411       .  A
C371        C372   1.409       .  A
O377       Ni385   1.961       .  S
O377       C1139   1.289       .  A
O378       Ni573   1.957       .  S
O378       C1140   1.289       .  A
O379       Ni573   1.906   1_556  S
O379        C389   1.278   1_456  A
O380       Ni385   1.909       .  S
O380        C390   1.279       .  A
O381       Ni574   1.917       .  S
O381       C1142   1.281       .  A
O382       Ni386   1.912       .  S
O382       C1141   1.280       .  A
O383       Ni386   1.959       .  S
O383        C388   1.289       .  A
O384       Ni574   1.955       .  S
O384        C387   1.288       .  A
Ni385       O566   1.957       .  S
Ni385       O567   1.906       .  S
Ni385     Ni1326   2.383   1_455  S
Ni386       O569   1.917       .  S
Ni386       O572   1.955   1_554  S
Ni386     Ni1325   2.383       .  S
C387       O1129   1.289       .  A
C387       C1154   1.518       .  S
C388       O1130   1.289       .  A
C388       C1153   1.518       .  S
C389       O1134   1.280       .  A
C389       C1311   1.470       .  S
C390       O1133   1.281   1_455  A
C390        C549   1.477       .  S
O391       Ni399   1.953       .  S
O391        C401   1.287   1_455  A
O392       Ni399   1.961       .  S
O392        C402   1.289       .  A
O393       Ni399   1.922       .  S
O393        C403   1.282   1_455  A
O394       Ni399   1.921       .  S
O394        C404   1.281       .  A
O395       Ni400   1.910       .  S
O395       C1156   1.277       .  A
O396       Ni400   1.915       .  S
O396       C1155   1.280       .  A
O397       Ni400   1.955       .  S
O397       C1154   1.288       .  A
O398       Ni400   1.962       .  S
O398       C1153   1.290       .  A
Ni399     Ni1152   2.375   1_455  S
Ni400     Ni1151   2.375       .  S
C401       O1150   1.290       .  A
C401       C1140   1.518   1_655  S
C402       O1149   1.288   1_455  A
C402       C1139   1.518       .  S
C403       O1148   1.280       .  A
C403        C536   1.481       .  S
C404       O1147   1.277   1_455  A
C404        C526   1.506       .  S
O405       Ni411   1.911       .  S
O405        C614   1.268       .  A
O406       Ni429   1.914       .  S
O407        H430   0.962       .  S
O407       Ni805   1.987   1_455  S
O407       Ni611   1.850       .  S
C408        O425   1.240       .  A
C408       O1169   1.252   1_455  A
C408        C821   1.444   1_455  S
O409       Ni428   1.918       .  S
O409        C603   1.270       .  A
O410       Ni428   1.902       .  S
O410        C412   1.272       .  A
Ni411       O414   1.877       .  S
Ni411       O416   1.905       .  S
C412       O1174   1.282       .  A
C412        C556   1.473       .  S
O413       Ni429   1.881       .  S
O413        C419   1.239       .  A
O414       C1171   1.252   1_455  A
C415        O597   1.270       .  A
C415        C519   1.471       .  S
O416        C418   1.273       .  A
O417       Ni428   1.882       .  S
O417       C1160   1.252       .  A
C418       O1176   1.285   1_455  A
C418        C546   1.482       .  S
C419       O1166   1.252       .  A
C419        C810   1.449   1_565  S
H420        O421   0.960   1_565  S
O421       Ni617   1.842   1_544  S
O421       Ni799   1.984       .  S
O422       Ni423   1.960       .  S
O422       C1164   1.282   1_455  A
Ni423       O427   1.916       .  S
Ni423       O425   1.880       .  S
Ni423       O595   1.850   1_554  S
Ni423       O797   1.984   1_455  S
O424       Ni429   1.969       .  S
O424       C1170   1.285       .  A
C426        O593   1.268       .  A
C426        C506   1.469   1_565  S
Ni429       O783   1.987   1_565  S
Ni429       O609   1.842   1_565  S
O431       Ni437   1.936       .  S
O431        C452   1.274       .  A
O432       Ni455   1.906       .  S
O433        H456   0.960       .  S
O433       Ni831   1.981   1_455  S
O433       Ni449   1.840       .  S
C434        O451   1.236       .  A
C434       O1195   1.258   1_455  A
C434        C795   1.449   1_455  S
O435       Ni454   1.931       .  S
O435        C441   1.272       .  A
O436       Ni454   1.913       .  S
O436        C438   1.275       .  A
Ni437       O440   1.874       .  S
Ni437       O442   1.911       .  S
C438       O1200   1.284       .  A
C438        C539   1.488       .  S
O439       Ni455   1.876       .  S
O439        C445   1.235       .  A
O440       C1197   1.255   1_455  A
C441        C499   1.477       .  S
O442        C444   1.277       .  A
O443       Ni454   1.878       .  S
O443       C1186   1.258       .  A
C444       O1202   1.279   1_455  A
C444        C529   1.504       .  S
C445       O1192   1.255       .  A
C445        C784   1.444   1_565  S
H446        O447   0.963       .  S
O447       Ni455   1.840       .  S
O447       Ni825   1.988   1_565  S
O448       Ni449   1.968       .  S
O448       C1190   1.284   1_455  A
Ni449       O453   1.905       .  S
Ni449       O451   1.877       .  S
Ni449       O823   1.988   1_455  S
O450       Ni455   1.949       .  S
O450       C1196   1.279       .  A
C452        C486   1.479       .  S
Ni455       O809   1.981   1_565  S
O457       Ni653   1.956       .  S
O458       Ni465   1.959   1_554  S
O459       Ni465   1.917       .  S
O460       Ni465   1.918       .  S
O461       Ni466   1.916       .  S
O461        C470   1.280       .  A
O462       Ni466   1.916       .  S
O462        C657   1.280       .  A
O463       Ni654   1.959   1_554  S
O463        C468   1.289       .  A
O464       Ni466   1.959       .  S
O464        C467   1.289       .  A
Ni465       O645   1.957       .  S
Ni466       O651   1.959       .  S
C467        C482   1.517       .  S
C468        C481   1.519       .  S
C469        O650   1.280       .  A
C469        C509   1.478       .  S
C470        C516   1.480       .  S
O471       Ni479   1.960       .  S
O472       Ni479   1.957       .  S
O473       Ni479   1.921       .  S
O474       Ni479   1.922       .  S
O475       Ni480   1.920       .  S
O475        C484   1.281       .  A
O476       Ni480   1.921       .  S
O476        C483   1.281       .  A
O477       Ni480   1.957       .  S
O477        C482   1.288       .  A
O478       Ni480   1.958       .  S
O478        C481   1.289       .  A
C484        C496   1.482       .  S
C485        C486   1.410       .  A
C485        C490   1.409       .  A
C485       Br492   1.930       .  S
C487        C488   1.410       .  A
C487       Br494   1.929       .  S
C488       Br493   1.932       .  S
C489        C490   1.412   1_545  A
C490       Br491   1.930       .  S
C495        C496   1.411       .  A
C495        C500   1.409       .  A
C495       Br502   1.930       .  S
C497        C498   1.410       .  A
C497       Br504   1.931       .  S
C498       Br503   1.930       .  S
C499        C500   1.409       .  A
C500       Br501   1.931       .  S
C505        C510   1.406       .  A
C505       Br512   1.931       .  S
C506        C695   1.407   1_546  A
C507        C694   1.407   1_565  A
C507        C508   1.408       .  A
C507       Br514   1.931       .  S
C508       Br513   1.931       .  S
C509        C510   1.413   1_554  A
C510       Br511   1.933       .  S
C515        C516   1.414       .  A
C515        C520   1.409       .  A
C515       Br522   1.931       .  S
C517        C518   1.406       .  A
C517       Br524   1.933       .  S
C518       Br523   1.931       .  S
C519        C520   1.407       .  A
C520       Br521   1.930       .  S
C525       C1278   1.425       .  A
C525        C530   1.413       .  A
C525       Br532   1.946       .  S
C526       C1277   1.425   1_455  A
C526        C527   1.421       .  A
C527        C528   1.412       .  A
C527       Br534   1.939       .  S
C528        C529   1.419       .  A
C528       Br533   1.940       .  S
C529       C1282   1.423   1_455  A
C530       C1281   1.423       .  A
C530       Br531   1.945       .  S
C535        C536   1.410   1_455  A
C535        C540   1.411       .  A
C535       Br542   1.932       .  S
C536       C1289   1.411       .  A
C537       C1288   1.411       .  A
C537        C538   1.407       .  A
C537       Br544   1.935       .  S
C538        C539   1.415       .  A
C538       Br543   1.937       .  S
C539       C1292   1.415       .  A
C540       C1291   1.415   1_455  A
C540       Br541   1.924       .  S
C545       C1486   1.411   1_554  A
C545        C550   1.409       .  A
C545       Br552   1.922       .  S
C546       C1485   1.411   1_455  A
C546        C547   1.415       .  A
C547        C548   1.405       .  A
C547       Br554   1.934       .  S
C548        C549   1.410       .  A
C548       Br553   1.935       .  S
C549       C1490   1.409   1_455  A
C550       C1489   1.409       .  A
C550       Br551   1.929       .  S
C555        C556   1.414       .  A
C555        C560   1.402       .  A
C555       Br750   1.935       .  S
C556       C1309   1.409   1_554  A
C557       C1308   1.409   1_456  A
C557        C558   1.407       .  A
C557       Br564   1.926       .  S
C558       C1311   1.411   1_456  A
C558       Br563   1.932       .  S
C559       C1141   1.470       .  S
C559       C1310   1.411   1_554  A
C559        C560   1.409       .  A
C560       Br749   1.936       .  S
Br561       C748   1.936       .  S
Br562       C743   1.935       .  S
O565       Ni573   1.961   1_556  S
O565       C1327   1.289       .  A
O566       C1328   1.289       .  A
O567        C577   1.278   1_455  A
O568       Ni573   1.909       .  S
O568        C578   1.279       .  A
O569       C1330   1.281       .  A
O570       Ni574   1.912       .  S
O570       C1329   1.280       .  A
O571       Ni574   1.959       .  S
O571        C576   1.289       .  A
O572        C575   1.288       .  A
Ni573     Ni1138   2.383   1_455  S
Ni574     Ni1137   2.383       .  S
C575       O1317   1.289       .  A
C575       C1342   1.518       .  S
C576       O1318   1.289       .  A
C576       C1341   1.518       .  S
C577       O1322   1.280       .  A
C577       C1499   1.470       .  S
C578       O1321   1.281   1_455  A
C578        C737   1.477       .  S
O579       Ni587   1.953       .  S
O579        C589   1.287   1_455  A
O580       Ni587   1.961       .  S
O580        C590   1.289       .  A
O581       Ni587   1.922       .  S
O581        C591   1.282   1_455  A
O582       Ni587   1.921       .  S
O582        C592   1.281       .  A
O583       Ni588   1.910       .  S
O583       C1344   1.277       .  A
O584       Ni588   1.915       .  S
O584       C1343   1.280       .  A
O585       Ni588   1.955       .  S
O585       C1342   1.288       .  A
O586       Ni588   1.962       .  S
O586       C1341   1.290       .  A
Ni587     Ni1340   2.375   1_455  S
Ni588     Ni1339   2.375       .  S
C589       O1338   1.290       .  A
C589       C1328   1.518   1_655  S
C590       O1337   1.288   1_455  A
C590       C1327   1.518       .  S
C591       O1336   1.280       .  A
C591        C724   1.481       .  S
C592       O1335   1.277   1_455  A
C592        C714   1.506       .  S
O593       Ni599   1.911       .  S
O594       Ni617   1.914       .  S
O595        H618   0.962       .  S
O595       Ni993   1.987   1_455  S
C596        O613   1.240       .  A
C596       O1357   1.252   1_455  A
C596       C1009   1.444   1_455  S
O597       Ni616   1.918       .  S
O598       Ni616   1.902       .  S
O598        C600   1.272       .  A
Ni599       O602   1.877       .  S
Ni599       O604   1.905       .  S
C600       O1362   1.282       .  A
C600        C744   1.473       .  S
O601       Ni617   1.881       .  S
O601        C607   1.239       .  A
O602       C1359   1.252   1_455  A
C603        C707   1.471   1_554  S
O604        C606   1.273       .  A
O605       Ni616   1.881       .  S
O605       C1348   1.252       .  A
C606       O1364   1.285   1_455  A
C606        C734   1.482       .  S
C607       O1354   1.252       .  A
C607        C998   1.449   1_565  S
H608        O609   0.960   1_565  S
O609       Ni987   1.984       .  S
O610       Ni611   1.960       .  S
O610       C1352   1.282   1_455  A
Ni611       O615   1.916       .  S
Ni611       O613   1.880       .  S
Ni611       O985   1.984   1_455  S
O612       Ni617   1.969       .  S
O612       C1358   1.285       .  A
C614        C694   1.469   1_565  S
Ni617       O971   1.987   1_565  S
O619       Ni625   1.936       .  S
O619        C640   1.274       .  A
O620       Ni643   1.905       .  S
O621        H644   0.959       .  S
O621      Ni1019   1.981   1_455  S
O621       Ni637   1.840       .  S
C622        O639   1.236       .  A
C622       O1383   1.258   1_455  A
C622        C983   1.449   1_455  S
O623       Ni642   1.931       .  S
O623        C629   1.272       .  A
O624       Ni642   1.913       .  S
O624        C626   1.275       .  A
Ni625       O628   1.874       .  S
Ni625       O630   1.910       .  S
C626       O1388   1.284       .  A
C626        C727   1.488       .  S
O627       Ni643   1.876       .  S
O627        C633   1.235       .  A
O628       C1385   1.255   1_455  A
C629        C687   1.477       .  S
O630        C632   1.277       .  A
O631       Ni642   1.878       .  S
O631       C1374   1.258       .  A
C632       O1390   1.279   1_455  A
C632        C717   1.504       .  S
C633       O1380   1.255       .  A
C633        C972   1.444   1_565  S
H634        O635   0.963       .  S
O635       Ni643   1.840       .  S
O635      Ni1013   1.988   1_565  S
O636       Ni637   1.968       .  S
O636       C1378   1.284   1_455  A
Ni637       O641   1.905       .  S
Ni637       O639   1.877       .  S
Ni637      O1011   1.988   1_455  S
O638       Ni643   1.949       .  S
O638       C1384   1.279       .  A
C640        C674   1.479       .  S
Ni643       O997   1.981   1_565  S
O646       Ni653   1.959       .  S
O647       Ni653   1.917       .  S
O648       Ni653   1.918       .  S
O649       Ni654   1.916       .  S
O649        C658   1.280       .  A
O650       Ni654   1.916   1_554  S
O651        C656   1.289       .  A
O652       Ni654   1.959       .  S
O652        C655   1.289       .  A
C655        C670   1.517       .  S
C656        C669   1.519       .  S
C657        C697   1.478       .  S
C658        C704   1.480       .  S
O659       Ni667   1.960       .  S
O660       Ni667   1.957       .  S
O661       Ni667   1.921       .  S
O662       Ni667   1.922       .  S
O663       Ni668   1.920       .  S
O663        C672   1.281       .  A
O664       Ni668   1.921       .  S
O664        C671   1.281       .  A
O665       Ni668   1.957       .  S
O665        C670   1.288       .  A
O666       Ni668   1.958       .  S
O666        C669   1.289       .  A
C672        C684   1.482       .  S
C673        C674   1.410       .  A
C673        C678   1.410       .  A
C673       Br680   1.930       .  S
C675        C676   1.410       .  A
C675       Br682   1.929       .  S
C676       Br681   1.932       .  S
C677        C678   1.412   1_545  A
C678       Br679   1.930       .  S
C683        C684   1.411       .  A
C683        C688   1.409       .  A
C683       Br690   1.930       .  S
C685        C686   1.410       .  A
C685       Br692   1.931       .  S
C686       Br691   1.930       .  S
C687        C688   1.409       .  A
C688       Br689   1.931       .  S
C693        C698   1.406       .  A
C693       Br700   1.931       .  S
C695        C696   1.408       .  A
C695       Br702   1.931       .  S
C696       Br701   1.931       .  S
C697        C698   1.413       .  A
C698       Br699   1.933       .  S
C703        C704   1.414       .  A
C703        C708   1.409       .  A
C703       Br710   1.931       .  S
C705        C706   1.406       .  A
C705       Br712   1.933       .  S
C706       Br711   1.931       .  S
C707        C708   1.407       .  A
C708       Br709   1.930       .  S
C713       C1466   1.425       .  A
C713        C718   1.413       .  A
C713       Br720   1.946       .  S
C714       C1465   1.425   1_455  A
C714        C715   1.421       .  A
C715        C716   1.412       .  A
C715       Br722   1.939       .  S
C716        C717   1.419       .  A
C716       Br721   1.940       .  S
C717       C1470   1.423   1_455  A
C718       C1469   1.423       .  A
C718       Br719   1.945       .  S
C723        C724   1.410   1_455  A
C723        C728   1.411       .  A
C723       Br730   1.932       .  S
C724       C1477   1.411       .  A
C725       C1476   1.411       .  A
C725        C726   1.407       .  A
C725       Br732   1.935       .  S
C726        C727   1.415       .  A
C726       Br731   1.937       .  S
C727       C1480   1.415       .  A
C728       C1479   1.415   1_455  A
C728       Br729   1.924       .  S
C733       C1298   1.411       .  A
C733        C738   1.409       .  A
C733       Br740   1.922       .  S
C734       C1297   1.411   1_456  A
C734        C735   1.415       .  A
C735        C736   1.405       .  A
C735       Br742   1.934       .  S
C736        C737   1.410   1_556  A
C736       Br741   1.935       .  S
C737       C1302   1.409   1_455  A
C738       C1301   1.409       .  A
C738       Br739   1.929       .  S
C743        C744   1.414       .  A
C743        C748   1.402       .  A
C744       C1497   1.409       .  A
C745       C1496   1.409   1_455  A
C745        C746   1.407       .  A
C745       Br752   1.926       .  S
C746       C1499   1.411   1_455  A
C746       Br751   1.932       .  S
C747       C1329   1.470       .  S
C747       C1498   1.411       .  A
C747        C748   1.409       .  A
O753       Ni761   1.961       .  S
O754       Ni949   1.957       .  S
O755       Ni949   1.906   1_556  S
O755        C765   1.278   1_556  A
O756       Ni761   1.909       .  S
O756        C766   1.279       .  A
O757       Ni950   1.917       .  S
O758       Ni762   1.912       .  S
O759       Ni762   1.959       .  S
O759        C764   1.289   1_655  A
O760       Ni950   1.955       .  S
O760        C763   1.288   1_655  A
Ni761       O942   1.957       .  S
Ni761       O943   1.906       .  S
Ni762       O945   1.917       .  S
Ni762       O948   1.955   1_554  S
C766        C925   1.477       .  S
O767       Ni775   1.953       .  S
O767        C777   1.287       .  A
O768       Ni775   1.961       .  S
O768        C778   1.289       .  A
O769       Ni775   1.922       .  S
O769        C779   1.282       .  A
O770       Ni775   1.921       .  S
O770        C780   1.281       .  A
O771       Ni776   1.910       .  S
O772       Ni776   1.915       .  S
O773       Ni776   1.955       .  S
O774       Ni776   1.962       .  S
C779        C912   1.481       .  S
C780        C902   1.506       .  S
O781       Ni787   1.911       .  S
O781        C990   1.268       .  A
O782       Ni805   1.914       .  S
O782       C1167   1.270       .  A
O783        H806   0.962       .  S
O783      Ni1163   1.934   1_545  S
O783       Ni987   1.850       .  S
C784        O801   1.240       .  A
O785       Ni804   1.918       .  S
O785        C979   1.270       .  A
O786       Ni804   1.902       .  S
O786        C788   1.272       .  A
Ni787       O790   1.877       .  S
Ni787       O792   1.905       .  S
Ni787      O1159   1.934       .  S
C788        C932   1.473       .  S
O789       Ni805   1.881       .  S
O789        C795   1.239       .  A
C791       O1158   1.270   1_545  A
C791        O973   1.270       .  A
C791        C895   1.471   1_545  S
O792        C794   1.273       .  A
O793       Ni804   1.882       .  S
C794        C922   1.482       .  S
H796        O797   0.960       .  S
O797       Ni993   1.842   1_554  S
O797      Ni1180   1.931       .  S
O798       Ni799   1.960       .  S
Ni799       O803   1.916       .  S
Ni799       O801   1.880       .  S
Ni799       O971   1.850   1_554  S
O800       Ni805   1.969       .  S
C802        O969   1.268       .  A
C802       O1179   1.270   1_556  A
C802        C882   1.469       .  S
O803       C1178   1.270   1_544  A
Ni804      O1173   1.931       .  S
Ni805       O985   1.842       .  S
O807       Ni813   1.936       .  S
O807        C828   1.274       .  A
O808       Ni831   1.906       .  S
O808       C1193   1.266       .  A
O809        H832   0.960       .  S
O809      Ni1189   1.931   1_545  S
O809       Ni825   1.840       .  S
C810        O827   1.236       .  A
O811       Ni830   1.931       .  S
O811        C817   1.272       .  A
O812       Ni830   1.913       .  S
O812        C814   1.275       .  A
Ni813       O816   1.874       .  S
Ni813       O818   1.911       .  S
Ni813      O1185   1.931       .  S
C814        C915   1.488       .  S
O815       Ni831   1.876       .  S
O815        C821   1.235       .  A
C817       O1184   1.266   1_545  A
C817        C875   1.477       .  S
O818        C820   1.277       .  A
O819       Ni830   1.878       .  S
C820        C905   1.504       .  S
H822        O823   0.963       .  S
O823       Ni831   1.840       .  S
O823      Ni1206   1.923       .  S
O824       Ni825   1.968       .  S
Ni825       O829   1.905       .  S
Ni825       O827   1.877       .  S
O826       Ni831   1.949       .  S
C828       O1205   1.267       .  A
C828        C862   1.479       .  S
O829       C1204   1.267   1_545  A
Ni830      O1199   1.923   1_545  S
O833      Ni1029   1.956       .  S
O833       C1219   1.288       .  A
O834       Ni841   1.959   1_554  S
O834       C1220   1.289       .  A
O835       Ni841   1.917       .  S
O835       C1221   1.281   1_556  A
O836       Ni841   1.918       .  S
O836       C1410   1.281       .  A
O837       Ni842   1.916       .  S
O837        C846   1.280   1_545  A
O838       Ni842   1.916       .  S
O838       C1033   1.280       .  A
O839      Ni1030   1.959   1_554  S
O839        C844   1.289       .  A
O840       Ni842   1.959       .  S
O840        C843   1.289       .  A
Ni841      O1021   1.957       .  S
Ni841     Ni1406   2.382       .  S
Ni842      O1027   1.959       .  S
Ni842     Ni1405   2.382   1_545  S
C843       O1209   1.288   1_545  A
C843        C858   1.517       .  S
C844       O1210   1.289   1_545  A
C844        C857   1.519       .  S
C845       O1211   1.281   1_544  A
C845       O1026   1.280       .  A
C845        C885   1.478       .  S
C846       O1400   1.281       .  A
C846        C892   1.480       .  S
O847       Ni855   1.960       .  S
O847       C1233   1.289       .  A
O848       Ni855   1.957       .  S
O848       C1234   1.289       .  A
O849       Ni855   1.921       .  S
O849       C1235   1.281       .  A
O850       Ni855   1.922       .  S
O850       C1236   1.281       .  A
O851       Ni856   1.920       .  S
O851        C860   1.281   1_545  A
O852       Ni856   1.921       .  S
O852        C859   1.281       .  A
O853       Ni856   1.957       .  S
O853        C858   1.288       .  A
O854       Ni856   1.958       .  S
O854        C857   1.289       .  A
Ni855     Ni1232   2.381       .  S
Ni856     Ni1231   2.381   1_545  S
C857       O1223   1.289   1_545  A
C858       O1224   1.289   1_545  A
C859       O1225   1.281   1_545  A
C859       C1241   1.482       .  S
C860       O1226   1.281       .  A
C860        C872   1.482       .  S
C861        C862   1.410       .  A
C861        C866   1.409       .  A
C861       Br868   1.930       .  S
C862       C1239   1.409       .  A
C863       C1238   1.409   1_545  A
C863        C864   1.410       .  A
C863       Br870   1.929       .  S
C864       C1241   1.414       .  A
C864       Br869   1.932       .  S
C865       C1235   1.482       .  S
C865       C1240   1.414       .  A
C865        C866   1.412       .  A
C866       Br867   1.930       .  S
C871        C872   1.411   1_545  A
C871        C876   1.409       .  A
C871       Br878   1.930       .  S
C872       C1249   1.414       .  A
C873       C1248   1.414       .  A
C873        C874   1.410       .  A
C873       Br880   1.931       .  S
C874       C1251   1.408       .  A
C874       Br879   1.930       .  S
C875       C1250   1.408   1_545  A
C875        C876   1.409       .  A
C876       Br877   1.931       .  S
C881       C1258   1.407       .  A
C881        C886   1.406       .  A
C881       Br888   1.931       .  S
C882       C1257   1.407       .  A
C882       C1071   1.407   1_556  A
C883       C1070   1.407       .  A
C883        C884   1.408       .  A
C883       Br890   1.931       .  S
C884       C1449   1.413       .  A
C884       Br889   1.931       .  S
C885       C1448   1.413   1_545  A
C885        C886   1.413   1_554  A
C886       Br887   1.933       .  S
C891        C892   1.414   1_545  A
C891        C896   1.409       .  A
C891       Br898   1.931       .  S
C892       C1457   1.414       .  A
C893       C1456   1.414   1_554  A
C893        C894   1.406       .  A
C893       Br900   1.933       .  S
C894       C1459   1.406   1_554  A
C894       Br899   1.931       .  S
C895       C1458   1.406       .  A
C895        C896   1.407   1_565  A
C896       Br897   1.930       .  S
C901        C906   1.413       .  A
C901       Br908   1.946       .  S
C902        C903   1.421       .  A
C903        C904   1.412       .  A
C903       Br910   1.939       .  S
C904        C905   1.419       .  A
C904       Br909   1.940       .  S
C906       Br907   1.945       .  S
C911        C912   1.410       .  A
C911        C916   1.411       .  A
C911       Br918   1.932       .  S
C913        C914   1.407       .  A
C913       Br920   1.935       .  S
C914        C915   1.415       .  A
C914       Br919   1.937       .  S
C916       Br917   1.924       .  S
C921        C926   1.409       .  A
C921       Br928   1.922       .  S
C922        C923   1.415       .  A
C923        C924   1.405       .  A
C923       Br930   1.934       .  S
C924        C925   1.410       .  A
C924       Br929   1.935       .  S
C926       Br927   1.929       .  S
C931        C932   1.414       .  A
C931        C936   1.402       .  A
C931      Br1126   1.935       .  S
C933        C934   1.407       .  A
C933       Br940   1.926       .  S
C934       Br939   1.932       .  S
C935        C936   1.409       .  A
C936      Br1125   1.936       .  S
Br937      C1124   1.936       .  S
Br938      C1119   1.935       .  S
O941       Ni949   1.961   1_556  S
O943        C953   1.278       .  A
O944       Ni949   1.909       .  S
O944        C954   1.279       .  A
O946       Ni950   1.912       .  S
O947       Ni950   1.959       .  S
O947        C952   1.289   1_655  A
O948        C951   1.288   1_655  A
C954       C1113   1.477       .  S
O955       Ni963   1.953       .  S
O955        C965   1.287       .  A
O956       Ni963   1.961       .  S
O956        C966   1.289       .  A
O957       Ni963   1.922       .  S
O957        C967   1.282       .  A
O958       Ni963   1.921       .  S
O958        C968   1.281       .  A
O959       Ni964   1.910       .  S
O960       Ni964   1.915       .  S
O961       Ni964   1.955       .  S
O962       Ni964   1.962       .  S
C967       C1100   1.481       .  S
C968       C1090   1.506       .  S
O969       Ni975   1.911       .  S
O970       Ni993   1.914       .  S
O970       C1355   1.270   1_556  A
O971        H994   0.962       .  S
O971      Ni1351   1.934   1_545  S
C972        O989   1.240       .  A
O973       Ni992   1.918       .  S
O974       Ni992   1.902       .  S
O974        C976   1.272       .  A
Ni975       O978   1.877       .  S
Ni975       O980   1.905       .  S
Ni975      O1347   1.934       .  S
C976       C1120   1.473       .  S
O977       Ni993   1.881       .  S
O977        C983   1.239       .  A
C979       O1346   1.270   1_544  A
C979       C1083   1.471   1_544  S
O980        C982   1.273       .  A
O981       Ni992   1.881       .  S
C982       C1110   1.482       .  S
H984        O985   0.960       .  S
O985      Ni1368   1.931       .  S
O986       Ni987   1.960       .  S
Ni987       O991   1.916       .  S
Ni987       O989   1.880       .  S
O988       Ni993   1.969       .  S
C990       O1367   1.270       .  A
C990       C1070   1.469       .  S
O991       C1366   1.270   1_545  A
Ni992      O1361   1.931       .  S
O995      Ni1001   1.936       .  S
O995       C1016   1.274       .  A
O996      Ni1019   1.905       .  S
O996       C1381   1.266       .  A
O997       H1020   0.959       .  S
O997      Ni1377   1.931   1_545  S
O997      Ni1013   1.840       .  S
C998       O1015   1.236       .  A
O999      Ni1018   1.931       .  S
O999       C1005   1.272       .  A
O1000     Ni1018   1.913       .  S
O1000      C1002   1.275       .  A
Ni1001     O1004   1.874       .  S
Ni1001     O1006   1.910       .  S
Ni1001     O1373   1.931       .  S
C1002      C1103   1.488       .  S
O1003     Ni1019   1.876       .  S
O1003      C1009   1.235       .  A
C1005      O1372   1.266   1_545  A
C1005      C1063   1.477       .  S
O1006      C1008   1.277       .  A
O1007     Ni1018   1.878       .  S
C1008      C1093   1.504       .  S
H1010      O1011   0.963       .  S
O1011     Ni1019   1.840       .  S
O1011     Ni1394   1.923       .  S
O1012     Ni1013   1.968       .  S
Ni1013     O1017   1.905       .  S
Ni1013     O1015   1.877       .  S
O1014     Ni1019   1.949       .  S
C1016      O1393   1.267       .  A
C1016      C1050   1.479       .  S
O1017      C1392   1.267   1_545  A
Ni1018     O1387   1.923   1_545  S
O1021      C1407   1.288       .  A
O1022     Ni1029   1.959       .  S
O1022      C1408   1.289       .  A
O1023     Ni1029   1.917       .  S
O1023      C1409   1.281       .  A
O1024     Ni1029   1.918       .  S
O1024      C1222   1.281       .  A
O1025     Ni1030   1.916       .  S
O1025      C1034   1.280   1_545  A
O1026     Ni1030   1.916   1_554  S
O1027      C1032   1.289       .  A
O1028     Ni1030   1.959       .  S
O1028      C1031   1.289       .  A
Ni1029    Ni1218   2.382       .  S
Ni1030    Ni1217   2.382   1_545  S
C1031      O1397   1.288   1_545  A
C1031      C1046   1.517       .  S
C1032      O1398   1.289   1_545  A
C1032      C1045   1.519       .  S
C1033      O1399   1.281   1_545  A
C1033      C1073   1.478       .  S
C1034      O1212   1.281       .  A
C1034      C1080   1.480       .  S
O1035     Ni1043   1.960       .  S
O1035      C1421   1.289       .  A
O1036     Ni1043   1.957       .  S
O1036      C1422   1.289       .  A
O1037     Ni1043   1.921       .  S
O1037      C1423   1.281       .  A
O1038     Ni1043   1.922       .  S
O1038      C1424   1.281       .  A
O1039     Ni1044   1.920       .  S
O1039      C1048   1.281   1_545  A
O1040     Ni1044   1.921       .  S
O1040      C1047   1.281       .  A
O1041     Ni1044   1.957       .  S
O1041      C1046   1.288       .  A
O1042     Ni1044   1.958       .  S
O1042      C1045   1.289       .  A
Ni1043    Ni1420   2.381       .  S
Ni1044    Ni1419   2.381   1_545  S
C1045      O1411   1.289   1_545  A
C1046      O1412   1.289   1_545  A
C1047      O1413   1.281   1_545  A
C1047      C1429   1.482       .  S
C1048      O1414   1.281       .  A
C1048      C1060   1.482       .  S
C1049      C1050   1.410       .  A
C1049      C1054   1.410       .  A
C1049     Br1056   1.930       .  S
C1050      C1427   1.409       .  A
C1051      C1426   1.409   1_545  A
C1051      C1052   1.410       .  A
C1051     Br1058   1.929       .  S
C1052      C1429   1.414       .  A
C1052     Br1057   1.932       .  S
C1053      C1423   1.482       .  S
C1053      C1428   1.414       .  A
C1053      C1054   1.412       .  A
C1054     Br1055   1.930       .  S
C1059      C1060   1.411   1_545  A
C1059      C1064   1.409       .  A
C1059     Br1066   1.930       .  S
C1060      C1437   1.414       .  A
C1061      C1436   1.414       .  A
C1061      C1062   1.410       .  A
C1061     Br1068   1.931       .  S
C1062      C1439   1.408       .  A
C1062     Br1067   1.930       .  S
C1063      C1438   1.408   1_545  A
C1063      C1064   1.409       .  A
C1064     Br1065   1.931       .  S
C1069      C1446   1.407       .  A
C1069      C1074   1.406       .  A
C1069     Br1076   1.931       .  S
C1070      C1445   1.407       .  A
C1071      C1072   1.408       .  A
C1071     Br1078   1.931       .  S
C1072      C1261   1.413       .  A
C1072     Br1077   1.931       .  S
C1073      C1260   1.413   1_545  A
C1073      C1074   1.413       .  A
C1074     Br1075   1.933       .  S
C1079      C1080   1.414   1_545  A
C1079      C1084   1.409       .  A
C1079     Br1086   1.931       .  S
C1080      C1269   1.414   1_556  A
C1081      C1268   1.414       .  A
C1081      C1082   1.406       .  A
C1081     Br1088   1.933       .  S
C1082      C1271   1.406       .  A
C1082     Br1087   1.931       .  S
C1083      C1270   1.406   1_556  A
C1083      C1084   1.407   1_565  A
C1084     Br1085   1.930       .  S
C1089      C1094   1.413       .  A
C1089     Br1096   1.946       .  S
C1090      C1091   1.421       .  A
C1091      C1092   1.412       .  A
C1091     Br1098   1.939       .  S
C1092      C1093   1.419       .  A
C1092     Br1097   1.940       .  S
C1094     Br1095   1.945       .  S
C1099      C1100   1.410       .  A
C1099      C1104   1.411       .  A
C1099     Br1106   1.932       .  S
C1101      C1102   1.407       .  A
C1101     Br1108   1.935       .  S
C1102      C1103   1.415       .  A
C1102     Br1107   1.937       .  S
C1104     Br1105   1.924       .  S
C1109      C1114   1.409       .  A
C1109     Br1116   1.922       .  S
C1110      C1111   1.415       .  A
C1111      C1112   1.405       .  A
C1111     Br1118   1.934       .  S
C1112      C1113   1.410   1_556  A
C1112     Br1117   1.935       .  S
C1114     Br1115   1.929       .  S
C1119      C1120   1.414       .  A
C1119      C1124   1.402       .  A
C1121      C1122   1.407       .  A
C1121     Br1128   1.926       .  S
C1122     Br1127   1.932       .  S
C1123      C1124   1.409       .  A
O1129     Ni1137   1.961       .  S
O1130     Ni1325   1.957       .  S
O1131     Ni1325   1.906   1_556  S
O1131      C1141   1.278   1_556  A
O1132     Ni1137   1.909       .  S
O1132      C1142   1.279       .  A
O1133     Ni1326   1.917       .  S
O1134     Ni1138   1.912       .  S
O1135     Ni1138   1.959       .  S
O1135      C1140   1.289   1_655  A
O1136     Ni1326   1.955       .  S
O1136      C1139   1.288   1_655  A
Ni1137     O1318   1.957       .  S
Ni1137     O1319   1.906       .  S
Ni1138     O1321   1.917       .  S
Ni1138     O1324   1.955   1_554  S
C1142      C1301   1.477       .  S
O1143     Ni1151   1.953       .  S
O1143      C1153   1.287       .  A
O1144     Ni1151   1.961       .  S
O1144      C1154   1.289       .  A
O1145     Ni1151   1.922       .  S
O1145      C1155   1.282       .  A
O1146     Ni1151   1.921       .  S
O1146      C1156   1.281       .  A
O1147     Ni1152   1.910       .  S
O1148     Ni1152   1.915       .  S
O1149     Ni1152   1.955       .  S
O1150     Ni1152   1.962       .  S
C1155      C1288   1.481       .  S
C1156      C1278   1.506       .  S
O1157     Ni1163   1.911       .  S
O1157      C1366   1.268       .  A
O1158     Ni1181   1.914       .  S
O1159      H1182   0.962       .  S
O1159     Ni1363   1.850       .  S
C1160      O1177   1.240       .  A
O1161     Ni1180   1.918       .  S
O1161      C1355   1.270       .  A
O1162     Ni1180   1.902       .  S
O1162      C1164   1.272       .  A
Ni1163     O1166   1.877       .  S
Ni1163     O1168   1.905       .  S
C1164      C1308   1.473       .  S
O1165     Ni1181   1.881       .  S
O1165      C1171   1.239       .  A
C1167      O1349   1.270       .  A
C1167      C1271   1.471       .  S
O1168      C1170   1.273       .  A
O1169     Ni1180   1.882       .  S
C1170      C1298   1.482       .  S
H1172      O1173   0.960   1_565  S
O1173     Ni1369   1.842   1_544  S
O1174     Ni1175   1.960       .  S
Ni1175     O1179   1.916       .  S
Ni1175     O1177   1.880       .  S
Ni1175     O1347   1.850   1_554  S
O1176     Ni1181   1.969       .  S
C1178      O1345   1.268       .  A
C1178      C1258   1.469   1_565  S
Ni1181     O1361   1.842   1_565  S
O1183     Ni1189   1.936       .  S
O1183      C1204   1.274       .  A
O1184     Ni1207   1.906       .  S
O1185      H1208   0.960       .  S
O1185     Ni1201   1.840       .  S
C1186      O1203   1.236       .  A
O1187     Ni1206   1.931       .  S
O1187      C1193   1.272       .  A
O1188     Ni1206   1.913       .  S
O1188      C1190   1.275       .  A
Ni1189     O1192   1.874       .  S
Ni1189     O1194   1.911       .  S
C1190      C1291   1.488       .  S
O1191     Ni1207   1.876       .  S
O1191      C1197   1.235       .  A
C1193      C1251   1.477       .  S
O1194      C1196   1.277       .  A
O1195     Ni1206   1.878       .  S
C1196      C1281   1.504       .  S
H1198      O1199   0.963       .  S
O1199     Ni1207   1.840       .  S
O1200     Ni1201   1.968       .  S
Ni1201     O1205   1.905       .  S
Ni1201     O1203   1.877       .  S
O1202     Ni1207   1.949       .  S
C1204      C1238   1.479       .  S
O1209     Ni1405   1.956       .  S
O1210     Ni1217   1.959   1_554  S
O1211     Ni1217   1.917       .  S
O1212     Ni1217   1.918       .  S
O1213     Ni1218   1.916       .  S
O1213      C1222   1.280       .  A
O1214     Ni1218   1.916       .  S
O1214      C1409   1.280       .  A
O1215     Ni1406   1.959   1_554  S
O1215      C1220   1.289       .  A
O1216     Ni1218   1.959       .  S
O1216      C1219   1.289       .  A
Ni1217     O1397   1.957       .  S
Ni1218     O1403   1.959       .  S
C1219      C1234   1.517       .  S
C1220      C1233   1.519       .  S
C1221      O1402   1.280       .  A
C1221      C1261   1.478       .  S
C1222      C1268   1.480       .  S
O1223     Ni1231   1.960       .  S
O1224     Ni1231   1.957       .  S
O1225     Ni1231   1.921       .  S
O1226     Ni1231   1.922       .  S
O1227     Ni1232   1.920       .  S
O1227      C1236   1.281       .  A
O1228     Ni1232   1.921       .  S
O1228      C1235   1.281       .  A
O1229     Ni1232   1.957       .  S
O1229      C1234   1.288       .  A
O1230     Ni1232   1.958       .  S
O1230      C1233   1.289       .  A
C1236      C1248   1.482       .  S
C1237      C1238   1.410       .  A
C1237      C1242   1.409       .  A
C1237     Br1244   1.930       .  S
C1239      C1240   1.410       .  A
C1239     Br1246   1.929       .  S
C1240     Br1245   1.932       .  S
C1241      C1242   1.412   1_545  A
C1242     Br1243   1.930       .  S
C1247      C1248   1.411       .  A
C1247      C1252   1.409       .  A
C1247     Br1254   1.930       .  S
C1249      C1250   1.410       .  A
C1249     Br1256   1.931       .  S
C1250     Br1255   1.930       .  S
C1251      C1252   1.409       .  A
C1252     Br1253   1.931       .  S
C1257      C1262   1.406       .  A
C1257     Br1264   1.931       .  S
C1258      C1447   1.407   1_546  A
C1259      C1446   1.407   1_565  A
C1259      C1260   1.408       .  A
C1259     Br1266   1.931       .  S
C1260     Br1265   1.931       .  S
C1261      C1262   1.413   1_554  A
C1262     Br1263   1.933       .  S
C1267      C1268   1.414       .  A
C1267      C1272   1.409       .  A
C1267     Br1274   1.931       .  S
C1269      C1270   1.406       .  A
C1269     Br1276   1.933       .  S
C1270     Br1275   1.931       .  S
C1271      C1272   1.407       .  A
C1272     Br1273   1.930       .  S
C1277      C1282   1.413       .  A
C1277     Br1284   1.946       .  S
C1278      C1279   1.421       .  A
C1279      C1280   1.412       .  A
C1279     Br1286   1.939       .  S
C1280      C1281   1.419       .  A
C1280     Br1285   1.940       .  S
C1282     Br1283   1.945       .  S
C1287      C1288   1.410       .  A
C1287      C1292   1.411       .  A
C1287     Br1294   1.932       .  S
C1289      C1290   1.407       .  A
C1289     Br1296   1.935       .  S
C1290      C1291   1.415       .  A
C1290     Br1295   1.937       .  S
C1292     Br1293   1.924       .  S
C1297      C1302   1.409       .  A
C1297     Br1304   1.922       .  S
C1298      C1299   1.415       .  A
C1299      C1300   1.405       .  A
C1299     Br1306   1.934       .  S
C1300      C1301   1.410       .  A
C1300     Br1305   1.935       .  S
C1302     Br1303   1.929       .  S
C1307      C1308   1.414       .  A
C1307      C1312   1.402       .  A
C1307     Br1502   1.935       .  S
C1309      C1310   1.407       .  A
C1309     Br1316   1.926       .  S
C1310     Br1315   1.932       .  S
C1311      C1312   1.409       .  A
C1312     Br1501   1.936       .  S
Br1313     C1500   1.936       .  S
Br1314     C1495   1.935       .  S
O1317     Ni1325   1.961   1_556  S
O1319      C1329   1.278       .  A
O1320     Ni1325   1.909       .  S
O1320      C1330   1.279       .  A
O1322     Ni1326   1.912       .  S
O1323     Ni1326   1.959       .  S
O1323      C1328   1.289   1_655  A
O1324      C1327   1.288   1_655  A
C1330      C1489   1.477       .  S
O1331     Ni1339   1.953       .  S
O1331      C1341   1.287       .  A
O1332     Ni1339   1.961       .  S
O1332      C1342   1.289       .  A
O1333     Ni1339   1.922       .  S
O1333      C1343   1.282       .  A
O1334     Ni1339   1.921       .  S
O1334      C1344   1.281       .  A
O1335     Ni1340   1.910       .  S
O1336     Ni1340   1.915       .  S
O1337     Ni1340   1.955       .  S
O1338     Ni1340   1.962       .  S
C1343      C1476   1.481       .  S
C1344      C1466   1.506       .  S
O1345     Ni1351   1.911       .  S
O1346     Ni1369   1.914       .  S
O1347      H1370   0.962       .  S
C1348      O1365   1.240       .  A
O1349     Ni1368   1.918       .  S
O1350     Ni1368   1.902       .  S
O1350      C1352   1.272       .  A
Ni1351     O1354   1.877       .  S
Ni1351     O1356   1.905       .  S
C1352      C1496   1.473       .  S
O1353     Ni1369   1.881       .  S
O1353      C1359   1.239       .  A
C1355      C1459   1.471   1_554  S
O1356      C1358   1.273       .  A
O1357     Ni1368   1.881       .  S
C1358      C1486   1.482       .  S
H1360      O1361   0.960   1_565  S
O1362     Ni1363   1.960       .  S
Ni1363     O1367   1.916       .  S
Ni1363     O1365   1.880       .  S
O1364     Ni1369   1.969       .  S
C1366      C1446   1.469   1_565  S
O1371     Ni1377   1.936       .  S
O1371      C1392   1.274       .  A
O1372     Ni1395   1.905       .  S
O1373      H1396   0.959       .  S
O1373     Ni1389   1.840       .  S
C1374      O1391   1.236       .  A
O1375     Ni1394   1.931       .  S
O1375      C1381   1.272       .  A
O1376     Ni1394   1.913       .  S
O1376      C1378   1.275       .  A
Ni1377     O1380   1.874       .  S
Ni1377     O1382   1.910       .  S
C1378      C1479   1.488       .  S
O1379     Ni1395   1.876       .  S
O1379      C1385   1.235       .  A
C1381      C1439   1.477       .  S
O1382      C1384   1.277       .  A
O1383     Ni1394   1.878       .  S
C1384      C1469   1.504       .  S
H1386      O1387   0.963       .  S
O1387     Ni1395   1.840       .  S
O1388     Ni1389   1.968       .  S
Ni1389     O1393   1.905       .  S
Ni1389     O1391   1.877       .  S
O1390     Ni1395   1.949       .  S
C1392      C1426   1.479       .  S
O1398     Ni1405   1.959       .  S
O1399     Ni1405   1.917       .  S
O1400     Ni1405   1.918       .  S
O1401     Ni1406   1.916       .  S
O1401      C1410   1.280       .  A
O1402     Ni1406   1.916   1_554  S
O1403      C1408   1.289       .  A
O1404     Ni1406   1.959       .  S
O1404      C1407   1.289       .  A
C1407      C1422   1.517       .  S
C1408      C1421   1.519       .  S
C1409      C1449   1.478       .  S
C1410      C1456   1.480       .  S
O1411     Ni1419   1.960       .  S
O1412     Ni1419   1.957       .  S
O1413     Ni1419   1.921       .  S
O1414     Ni1419   1.922       .  S
O1415     Ni1420   1.920       .  S
O1415      C1424   1.281       .  A
O1416     Ni1420   1.921       .  S
O1416      C1423   1.281       .  A
O1417     Ni1420   1.957       .  S
O1417      C1422   1.288       .  A
O1418     Ni1420   1.958       .  S
O1418      C1421   1.289       .  A
C1424      C1436   1.482       .  S
C1425      C1426   1.410       .  A
C1425      C1430   1.410       .  A
C1425     Br1432   1.930       .  S
C1427      C1428   1.410       .  A
C1427     Br1434   1.929       .  S
C1428     Br1433   1.932       .  S
C1429      C1430   1.412   1_545  A
C1430     Br1431   1.930       .  S
C1435      C1436   1.411       .  A
C1435      C1440   1.409       .  A
C1435     Br1442   1.930       .  S
C1437      C1438   1.410       .  A
C1437     Br1444   1.931       .  S
C1438     Br1443   1.930       .  S
C1439      C1440   1.409       .  A
C1440     Br1441   1.931       .  S
C1445      C1450   1.406       .  A
C1445     Br1452   1.931       .  S
C1447      C1448   1.408       .  A
C1447     Br1454   1.931       .  S
C1448     Br1453   1.931       .  S
C1449      C1450   1.413       .  A
C1450     Br1451   1.933       .  S
C1455      C1456   1.414       .  A
C1455      C1460   1.409       .  A
C1455     Br1462   1.931       .  S
C1457      C1458   1.406       .  A
C1457     Br1464   1.933       .  S
C1458     Br1463   1.931       .  S
C1459      C1460   1.407       .  A
C1460     Br1461   1.930       .  S
C1465      C1470   1.413       .  A
C1465     Br1472   1.946       .  S
C1466      C1467   1.421       .  A
C1467      C1468   1.412       .  A
C1467     Br1474   1.939       .  S
C1468      C1469   1.419       .  A
C1468     Br1473   1.940       .  S
C1470     Br1471   1.945       .  S
C1475      C1476   1.410       .  A
C1475      C1480   1.411       .  A
C1475     Br1482   1.932       .  S
C1477      C1478   1.407       .  A
C1477     Br1484   1.935       .  S
C1478      C1479   1.415       .  A
C1478     Br1483   1.937       .  S
C1480     Br1481   1.924       .  S
C1485      C1490   1.409       .  A
C1485     Br1492   1.922       .  S
C1486      C1487   1.415       .  A
C1487      C1488   1.405       .  A
C1487     Br1494   1.934       .  S
C1488      C1489   1.410   1_556  A
C1488     Br1493   1.935       .  S
C1490     Br1491   1.929       .  S
C1495      C1496   1.414       .  A
C1495      C1500   1.402       .  A
C1497      C1498   1.407       .  A
C1497     Br1504   1.926       .  S
C1498     Br1503   1.932       .  S
C1499      C1500   1.409       .  A
