geometry optimzed in LAMMPS
_audit_creation_date              2020-11-30 
_audit_creation_method            'lammps2cif' 
_symmetry_space_group_name_H-M    'P1' 
_symmetry_Int_Tables_number       1 
_symmetry_cell_setting            triclinic 
loop_ 
_symmetry_equiv_pos_as_xyz 
  x,y,z 
_cell_length_a                    45.41000966 
_cell_length_b                    36.33849943942542 
_cell_length_c                    37.92141284270437 
_cell_angle_alpha                 89.9590995922626 
_cell_angle_beta                  88.90469259229613 
_cell_angle_gamma                 90.07813481216841 
loop_ 
_atom_site_label 
_atom_site_type_symbol 
_atom_site_fract_x 
_atom_site_fract_y 
_atom_site_fract_z 
_atom_site_charge 
C1          C  0.77285609  0.24929586  0.12264962    -0.01600
C2          C  0.77289957  0.25070389  0.37323378    -0.01600
Fe3        Fe  0.77817967  0.37507437  0.24586814     1.65800
Fe4        Fe  0.82930890  0.44177823  0.24867731     1.73200
Fe5        Fe  0.85129430  0.35243951  0.24596146     1.52000
O6          O  0.83235033  0.32434153  0.28788138    -0.80800
O7          O  0.86891381  0.43569006  0.22168728    -0.79100
O8          O  0.78405031  0.33129921  0.28022474    -0.83300
O9          O  0.78516326  0.34222318  0.20235310    -0.78100
O10         O  0.87663060  0.38198615  0.28123840    -0.79900
O11         O  0.80723225  0.45266761  0.20257349    -0.82600
C12         C  0.80590603  0.32063545  0.19341169     0.98100
C13         C  0.80576221  0.31734852  0.29607598     1.05600
O14         O  0.81963632  0.38952197  0.24639584    -1.11600
O15         O  0.79287576  0.45717099  0.27904341    -0.74100
O16         O  0.76759792  0.40608655  0.29009427    -0.77500
O17         O  0.83040233  0.31932061  0.20909087    -0.78200
C18         C  0.77390010  0.43922872  0.29690419     0.97000
O19         O  0.76716576  0.41767095  0.21133765    -0.76200
O20         O  0.85154107  0.43319264  0.29429013    -0.81400
C21         C  0.88411950  0.41021551  0.20752351     0.99600
C22         C  0.87395698  0.41262214  0.29723782     1.05600
O23         O  0.87460038  0.37749689  0.20520928    -0.77000
C24         C  0.78114716  0.44312394  0.19496717     1.03900
Fe25       Fe  0.77810583  0.12439350  0.49624972     1.65800
Fe26       Fe  0.82908126  0.05769428  0.49999761     1.73200
Fe27       Fe  0.85128698  0.14704127  0.49653337     1.54400
O28         O  0.83052705  0.18016191  0.45953300    -0.80800
O29         O  0.85128692  0.06671759  0.04555878    -0.79100
O30         O  0.78524151  0.15731857  0.45272682    -0.83300
O31         O  0.78402855  0.16821522  0.03045080    -0.78100
O32         O  0.87463280  0.12170376  0.45608271    -0.79900
O33         O  0.79265038  0.04252214  0.03051075    -0.82600
C34         C  0.80574854  0.18237102  0.04616147     0.98100
C35         C  0.80599236  0.17904067  0.44391654     1.05600
O36         O  0.81952700  0.10994161  0.49712141    -1.11600
O37         O  0.80707118  0.04630602  0.45394485    -0.74100
O38         O  0.76718432  0.08170890  0.46171785    -0.77500
O39         O  0.83233960  0.17533611  0.03815667    -0.78200
C40         C  0.78117891  0.05603803  0.44576697     0.97000
O41         O  0.76719625  0.09356973  0.04055354    -0.76200
O42         O  0.86864467  0.06361939  0.47295825    -0.81400
C43         C  0.87376779  0.08727954  0.04832633     0.99600
C44         C  0.88397965  0.08894178  0.45862784     1.05600
O45         O  0.87652498  0.11774401  0.03201558    -0.77000
C46         C  0.77350912  0.06058108  0.04789961     1.03900
C47         C  0.97710264  0.47798153  0.35851442     0.87400
C48         C  0.99470808  0.50559046  0.33540033    -0.52800
C49         C  0.01494311  0.02604643  0.35352333     0.10300
C50         C  0.01491295  0.01758834  0.39319938     0.21300
C51         C  0.00087953  0.45499439  0.37639144    -0.53600
C52         C  0.02093993  0.47562934  0.39427055     0.10400
C53         C  0.96355087  0.50081463  0.38803772    -0.53100
C54         C  0.98267431  0.02235691  0.40542847     0.11000
H55         H  0.99226685  0.00723855  0.30701562     0.15500
H56         H  0.03062134  0.03417815  0.40863203     0.01200
H57         H  0.00347574  0.42560342  0.37295511     0.15800
H58         H  0.93990087  0.00206148  0.39321078     0.15600
Fe59       Fe  0.22497823  0.37704248  0.00133117     1.65800
Fe60       Fe  0.17377902  0.44449784  0.99717960     1.73200
Fe61       Fe  0.15163189  0.35504926  0.00204447     1.54400
O62         O  0.17039397  0.32636466  0.45974450    -0.80800
O63         O  0.13615887  0.43925537  0.02748370    -0.79100
O64         O  0.21882756  0.33402436  0.46633586    -0.83300
O65         O  0.21813121  0.34343595  0.04443646    -0.78100
O66         O  0.12565224  0.38428169  0.46717874    -0.79900
O67         O  0.19744226  0.45662745  0.04162786    -0.82600
C68         C  0.19736348  0.32205808  0.05378015     0.98100
C69         C  0.19701995  0.31971239  0.45092603     1.05600
O70         O  0.18346423  0.39205508  0.00044214    -1.11600
O71         O  0.20869891  0.45836904  0.46424024    -0.74100
O72         O  0.23650792  0.40853308  0.45777710    -0.77500
O73         O  0.17254582  0.32154913  0.03879468    -0.78200
C74         C  0.22905684  0.44066200  0.44873115     0.97000
O75         O  0.23598258  0.41860681  0.03653022    -0.76200
O76         O  0.14913209  0.43628182  0.45312884    -0.81400
C77         C  0.12126539  0.41455768  0.04331407     0.99600
C78         C  0.12727828  0.41471616  0.45056624     1.05600
O79         O  0.12893440  0.38090357  0.04325437    -0.77000
C80         C  0.22248574  0.44534128  0.05122594     1.03900
Fe81       Fe  0.22493811  0.12573154  0.25112984     1.65800
Fe82       Fe  0.17395846  0.05806810  0.24838433     1.73200
Fe83       Fe  0.15164949  0.14734917  0.25204849     1.54400
O84         O  0.17291444  0.18133367  0.28825992    -0.80800
O85         O  0.14944967  0.06546783  0.20409866    -0.79100
O86         O  0.21829647  0.15896042  0.29452535    -0.83300
O87         O  0.21854391  0.16914081  0.21662771    -0.78100
O88         O  0.12907039  0.12198843  0.29372952    -0.79900
O89         O  0.20908636  0.04390532  0.21598254    -0.82600
C90         C  0.19673262  0.18289543  0.20085311     0.98100
C91         C  0.19765642  0.18066120  0.30349818     1.05600
O92         O  0.18349158  0.11055520  0.25081014    -1.11600
O93         O  0.19749931  0.04687207  0.29305841    -0.74100
O94         O  0.23656489  0.08378886  0.28577950    -0.77500
O95         O  0.17013702  0.17559247  0.20928782    -0.78200
C96         C  0.22302873  0.05758007  0.30142716     0.97000
O97         O  0.23564095  0.09455740  0.20716952    -0.76200
O98         O  0.13629174  0.06359075  0.27838568    -0.81400
C99         C  0.12749211  0.08675965  0.20124777     0.99600
C100        C  0.12135735  0.08833168  0.29395682     1.05600
O101        O  0.12567142  0.11734356  0.21759438    -0.77000
C102        C  0.22868321  0.06189484  0.19929522     1.03900
C103        C  0.23127204  0.25285707  0.37414452    -0.01600
C104        C  0.23108707  0.24995713  0.12423287    -0.01600
C105        C  0.97688185  0.02239107  0.11007566     0.87400
C106        C  0.00099286  0.04544455  0.12726572    -0.52800
C107        C  0.02132814  0.02486273  0.14477068     0.10300
C108        C  0.01520024  0.48285311  0.14391603     0.21300
C109        C  0.99404662  0.99473979  0.08663992    -0.53600
C110        C  0.01460545  0.47444307  0.10429042     0.10400
C111        C  0.96382145  0.99976683  0.14013244    -0.53100
C112        C  0.98313939  0.47799822  0.15691256     0.11000
H113        H  0.00339609  0.07487089  0.12390297     0.15500
H114        H  0.03110564  0.46623598  0.15899846     0.01200
H115        H  0.99127001  0.99317761  0.05830532     0.15800
H116        H  0.94024142  0.99839878  0.14578927     0.15600
Fe117      Fe  0.27839502  0.37605629  0.24457657     1.65800
Fe118      Fe  0.32972316  0.30979695  0.24799487     1.73200
Fe119      Fe  0.35146645  0.39930107  0.24451840     1.54400
O120        O  0.33023614  0.43248340  0.20793028    -0.80800
O121        O  0.35212463  0.31903979  0.29338038    -0.79100
O122        O  0.28521606  0.40888279  0.20102782    -0.83300
O123        O  0.28421593  0.41992534  0.27877178    -0.78100
O124        O  0.37473651  0.37430544  0.20365769    -0.79900
O125        O  0.29354180  0.29437530  0.27884575    -0.82600
C126        C  0.30588888  0.43388646  0.29473542     0.98100
C127        C  0.30570215  0.43099856  0.19233542     1.05600
O128        O  0.31989596  0.36193585  0.24518856    -1.11600
O129        O  0.30751531  0.29814750  0.20214328    -0.74100
O130        O  0.26754350  0.33334020  0.21013662    -0.77500
O131        O  0.33251142  0.42704244  0.28660870    -0.78200
C132        C  0.28155281  0.30773847  0.19413373     0.97000
O133        O  0.26776393  0.34517152  0.28891312    -0.76200
O134        O  0.36905427  0.31614317  0.22053601    -0.81400
C135        C  0.37462892  0.33960166  0.29585280     0.99600
C136        C  0.38418774  0.34154954  0.20601335     1.05600
O137        O  0.37721900  0.37007982  0.27955169    -0.77000
C138        C  0.27431757  0.31226112  0.29627873     1.03900
Fe139      Fe  0.27761111  0.12644674  0.49507930     1.65800
Fe140      Fe  0.32932119  0.19249938  0.49824660     1.73200
Fe141      Fe  0.35045098  0.10286179  0.49570995     1.54400
O142        O  0.33142128  0.07595081  0.03810246    -0.80800
O143        O  0.36846774  0.18555314  0.47065143    -0.79100
O144        O  0.28321247  0.08262048  0.02938459    -0.83300
O145        O  0.28449508  0.09350425  0.45156475    -0.78100
O146        O  0.37648921  0.13225645  0.03031540    -0.79900
O147        O  0.30710375  0.20397707  0.45235988    -0.82600
C148        C  0.30488019  0.07108918  0.44338730     0.98100
C149        C  0.30475148  0.06897010  0.04579057     1.05600
O150        O  0.31915670  0.14041151  0.99590665    -1.11600
O151        O  0.29326918  0.20817125  0.02909152    -0.74100
O152        O  0.26711574  0.15753208  0.03926167    -0.77500
O153        O  0.32909332  0.06930628  0.45960449    -0.78200
C154        C  0.27387463  0.19043257  0.04649955     0.97000
O155        O  0.26689473  0.16915007  0.46053973    -0.76200
O156        O  0.35189957  0.18368562  0.04363146    -0.81400
C157        C  0.38320822  0.15978861  0.45626506     0.99600
C158        C  0.37417894  0.16285448  0.04638547     1.05600
O159        O  0.37352139  0.12711126  0.45443548    -0.77000
C160        C  0.28106561  0.19460219  0.44442110     1.03900
C161        C  0.27238837  0.99993345  0.37179097    -0.01600
C162        C  0.27142124  0.00232735  0.12235004    -0.01600
C163        C  0.47713590  0.27402102  0.35800637     0.87400
C164        C  0.50037436  0.29634520  0.37771406    -0.52800
C165        C  0.52005820  0.27495939  0.39551065     0.10300
C166        C  0.51403529  0.23305291  0.39260749     0.21300
C167        C  0.49543996  0.24757861  0.33454046    -0.53600
C168        C  0.51499595  0.22637461  0.35276552     0.10400
C169        C  0.46287650  0.24992410  0.38622797    -0.53100
C170        C  0.48157407  0.22763416  0.40336091     0.11000
H171        H  0.50293098  0.32588487  0.37549407     0.15500
H172        H  0.52937159  0.21554345  0.40768047     0.01200
H173        H  0.49441682  0.24759362  0.30594412     0.15800
H174        H  0.43913414  0.24838787  0.39059123     0.15600
C175        C  0.73119974  0.99842713  0.37510326    -0.01600
Fe176      Fe  0.72555785  0.12545533  0.25239727     1.65800
Fe177      Fe  0.67508476  0.19389594  0.24782512     1.73200
Fe178      Fe  0.65171729  0.10486889  0.25392457     1.54400
O179        O  0.67014687  0.07487771  0.21210148    -0.80800
O180        O  0.63822565  0.18980118  0.27896856    -0.79100
O181        O  0.71873902  0.08308633  0.21691123    -0.83300
O182        O  0.71846793  0.09130601  0.29507603    -0.78100
O183        O  0.62596396  0.13394666  0.21871281    -0.79900
O184        O  0.69947221  0.20616360  0.29166364    -0.82600
C185        C  0.69730152  0.07099767  0.30529685     0.98100
C186        C  0.69663905  0.06833707  0.20246539     1.05600
O187        O  0.68413006  0.14125527  0.25156111    -1.11600
O188        O  0.70954605  0.20679384  0.21421649    -0.74100
O189        O  0.73795643  0.15734332  0.20931268    -0.77500
O190        O  0.67212916  0.07158640  0.29121002    -0.78200
C191        C  0.73039156  0.18924409  0.19964690     0.97000
O192        O  0.73688753  0.16627733  0.28817231    -0.76200
O193        O  0.64942975  0.18589642  0.20439594    -0.81400
C194        C  0.62263838  0.16594566  0.29490861     0.99600
C195        C  0.62749110  0.16437900  0.20208843     1.05600
O196        O  0.62916376  0.13189550  0.29466879    -0.77000
C197        C  0.72395008  0.19385372  0.30209811     1.03900
C198        C  0.73036222  0.00114737  0.12558936    -0.01600
Fe199      Fe  0.72527419  0.37409174  0.00210393     1.65800
Fe200      Fe  0.67425944  0.30633888  0.99830355     1.73200
Fe201      Fe  0.65194729  0.39559698  0.00267178     1.54400
O202        O  0.67304167  0.42982289  0.03870692    -0.80800
O203        O  0.64925893  0.31401426  0.45430305    -0.79100
O204        O  0.71829593  0.40743632  0.04539753    -0.83300
O205        O  0.71886242  0.41721945  0.46725612    -0.78100
O206        O  0.62969618  0.37013441  0.04443829    -0.79900
O207        O  0.70923717  0.29251924  0.46551328    -0.82600
C208        C  0.69703497  0.43086806  0.45138332     0.98100
C209        C  0.69761403  0.42910273  0.05423892     1.05600
O210        O  0.68383577  0.35880406  0.00122540    -1.11600
O211        O  0.69794051  0.29461385  0.04282031    -0.74100
O212        O  0.73657456  0.33249217  0.03714878    -0.77500
O213        O  0.67041299  0.42362815  0.45980669    -0.78200
C214        C  0.72308453  0.30585857  0.05212813     0.97000
O215        O  0.73676158  0.34267149  0.45848885    -0.76200
O216        O  0.63689301  0.31183288  0.02864586    -0.81400
C217        C  0.62707618  0.33510557  0.45231206     0.99600
C218        C  0.62200422  0.33647174  0.04441620     1.05600
O219        O  0.62559624  0.36565149  0.46869790    -0.77000
C220        C  0.72953243  0.31029950  0.44984912     1.03900
C221        C  0.47741465  0.22688217  0.10877259     0.87400
C222        C  0.49546658  0.25372428  0.08535222    -0.52800
C223        C  0.51552732  0.27448257  0.10336833     0.10300
C224        C  0.51506648  0.26699826  0.14317365     0.21300
C225        C  0.50080607  0.20406317  0.12760842    -0.53600
C226        C  0.52086750  0.22498311  0.14527689     0.10400
C227        C  0.46368958  0.25053927  0.13760688    -0.53100
C228        C  0.48271575  0.27249045  0.15467936     0.11000
H229        H  0.49333374  0.25480495  0.05690056     0.15500
H230        H  0.53074334  0.28380857  0.15844473     0.01200
H231        H  0.50313727  0.17453766  0.12498134     0.15800
H232        H  0.43999734  0.25220013  0.14232383     0.15600
C233        C  0.57866967  0.29601775  0.04142637    -0.12400
C234        C  0.59327151  0.32452511  0.05910372     0.09700
C235        C  0.57997670  0.34013879  0.08919003    -0.12400
C236        C  0.55348909  0.32532192  0.10274686    -0.12400
C237        C  0.53989726  0.29527328  0.08596711     0.09700
C238        C  0.55241756  0.28160546  0.05462276    -0.12400
H239        H  0.58792858  0.28417402  0.01745072     0.13700
H240        H  0.59052857  0.36261578  0.10281520     0.13700
H241        H  0.54405703  0.33672788  0.12677209     0.13700
H242        H  0.54293318  0.25827399  0.04119004     0.13700
C243        C  0.70307047  0.45458129  0.08263167    -0.12400
C244        C  0.71249255  0.47572344  0.10443984    -0.13900
C245        C  0.57430819  0.15840323  0.18691654    -0.12400
C246        C  0.60130507  0.17713071  0.18276951     0.09700
C247        C  0.60162207  0.21134222  0.16537424    -0.12400
C248        C  0.57546771  0.22700545  0.15357187    -0.12400
C249        C  0.54844669  0.20877721  0.15879650     0.09700
C250        C  0.54820379  0.17405274  0.17505870    -0.12400
H251        H  0.57309470  0.13232201  0.20069102     0.13700
H252        H  0.62195494  0.22664254  0.16190302     0.13700
H253        H  0.57645358  0.25333596  0.14024896     0.13700
H254        H  0.52768817  0.15934673  0.17937163     0.13700
C255        C  0.71235269  0.02372208  0.15020157    -0.12400
C256        C  0.70256272  0.04336577  0.17348858    -0.13900
C257        C  0.70300608  0.04539835  0.33347718    -0.12400
C258        C  0.71299382  0.02402672  0.35466731    -0.13900
C259        C  0.70340049  0.45547206  0.42231721    -0.12400
C260        C  0.71333269  0.47523994  0.39924000    -0.13900
C261        C  0.55630294  0.22622886  0.30948889    -0.12400
C262        C  0.54035111  0.20758163  0.33581176     0.09700
C263        C  0.55137044  0.17422277  0.34910097    -0.12400
C264        C  0.57818300  0.15985958  0.33610948    -0.12400
C265        C  0.59459344  0.17944885  0.31055702     0.09700
C266        C  0.58304616  0.21251846  0.29720693    -0.12400
H267        H  0.54875266  0.25240582  0.29940979     0.13700
H268        H  0.53942160  0.15962370  0.36977456     0.13700
H269        H  0.58630183  0.13408115  0.34642473     0.13700
H270        H  0.59466037  0.22803993  0.27687837     0.13700
C271        C  0.54766843  0.32558090  0.42546185    -0.12400
C272        C  0.54761100  0.29063207  0.40970526     0.09700
C273        C  0.57440095  0.27172087  0.40546353    -0.12400
C274        C  0.60063757  0.28715535  0.41732992    -0.12400
C275        C  0.60066119  0.32185941  0.43372832     0.09700
C276        C  0.57386110  0.34102031  0.43733013    -0.12400
H277        H  0.52733884  0.34075401  0.42919442     0.13700
H278        H  0.57520650  0.24512796  0.39267385     0.13700
H279        H  0.62078356  0.27143334  0.41446856     0.13700
H280        H  0.57288844  0.36744503  0.45046449     0.13700
C281        C  0.42968687  0.19248833  0.46775481    -0.12400
C282        C  0.41389483  0.16841152  0.44603038     0.09700
C283        C  0.42753644  0.15459060  0.41540613    -0.12400
C284        C  0.45482872  0.16901991  0.40424483    -0.12400
C285        C  0.46841064  0.19725322  0.42365249     0.09700
C286        C  0.45691864  0.20641954  0.45689210    -0.12400
H287        H  0.42000792  0.20257534  0.49215457     0.13700
H288        H  0.41606080  0.13537219  0.39869976     0.13700
H289        H  0.46315490  0.16210088  0.37811808     0.13700
H290        H  0.46672161  0.22841035  0.47201236     0.13700
C291        C  0.40507570  0.21536709  0.06296328    -0.12400
C292        C  0.40002114  0.17738525  0.06445311     0.09700
C293        C  0.42197622  0.15420569  0.07761287    -0.12400
C294        C  0.44806608  0.16917153  0.09066487    -0.12400
C295        C  0.45286776  0.20749671  0.08956958     0.09700
C296        C  0.43138654  0.23002554  0.07435863    -0.12400
H297        H  0.38908337  0.23382523  0.05165024     0.13700
H298        H  0.41884028  0.12466834  0.07802773     0.13700
H299        H  0.46378696  0.15061681  0.10207265     0.13700
H300        H  0.43440063  0.25958028  0.07301324     0.13700
C301        C  0.29953801  0.04590749  0.41495542    -0.12400
C302        C  0.29024805  0.02493443  0.39306870    -0.13900
C303        C  0.29828214  0.04469174  0.07469415    -0.12400
C304        C  0.28895897  0.02510815  0.09802284    -0.13900
C305        C  0.42964013  0.34667057  0.16649691    -0.12400
C306        C  0.41498689  0.33234473  0.19632043     0.09700
C307        C  0.42994538  0.30734900  0.21796330    -0.12400
C308        C  0.45728312  0.29325138  0.20780636    -0.12400
C309        C  0.46974563  0.30292172  0.17515247     0.09700
C310        C  0.45699922  0.33191626  0.15591713    -0.12400
H311        H  0.41891637  0.36663346  0.14987498     0.13700
H312        H  0.41956204  0.29673774  0.24174682     0.13700
H313        H  0.46638074  0.27070714  0.22281704     0.13700
H314        H  0.46604817  0.33933708  0.13023780     0.13700
C315        C  0.40522954  0.28673149  0.31173574    -0.12400
C316        C  0.40039727  0.32471760  0.31370832     0.09700
C317        C  0.42247256  0.34757172  0.32713698    -0.12400
C318        C  0.44841572  0.33223322  0.34014098    -0.12400
C319        C  0.45296577  0.29388934  0.33863291     0.09700
C320        C  0.43145414  0.27174629  0.32292732    -0.12400
H321        H  0.38914252  0.26854980  0.30015396     0.13700
H322        H  0.41950809  0.37711901  0.32787819     0.13700
H323        H  0.46420884  0.35050586  0.35185847     0.13700
H324        H  0.43430956  0.24220060  0.32118344     0.13700
C325        C  0.29958596  0.45821640  0.32376047    -0.12400
C326        C  0.29021559  0.47756318  0.34729589    -0.13900
C327        C  0.28975325  0.47735412  0.14296098    -0.12400
C328        C  0.29989312  0.45633759  0.16421187    -0.13900
C329        C  0.26669777  0.28811843  0.16649446    -0.12400
C330        C  0.25193293  0.27124178  0.14564615    -0.13900
C331        C  0.24713080  0.22614642  0.09896442    -0.12400
C332        C  0.25910105  0.20875026  0.07554790    -0.13900
C333        C  0.25188477  0.23137807  0.39570136    -0.12400
C334        C  0.26636938  0.21431314  0.41669744    -0.13900
C335        C  0.24751612  0.27672912  0.34898129    -0.12400
C336        C  0.25951805  0.29410128  0.32549393    -0.13900
C337        C  0.25198111  0.02157047  0.35045139    -0.12400
C338        C  0.23776405  0.03852067  0.32927507    -0.13900
C339        C  0.24347654  0.04393708  0.17032155    -0.12400
C340        C  0.25534226  0.02615963  0.14725833    -0.13900
C341        C  0.07569598  0.02233262  0.15466821    -0.12400
C342        C  0.04892745  0.04142341  0.15786657     0.09700
C343        C  0.04894781  0.07719010  0.17190983    -0.12400
C344        C  0.07500250  0.09308407  0.18358536    -0.12400
C345        C  0.10165490  0.07349532  0.18166374     0.09700
C346        C  0.10179034  0.03819683  0.16641581    -0.12400
H347        H  0.07654927  0.49519580  0.14301344     0.13700
H348        H  0.02865139  0.09259242  0.17478159     0.13700
H349        H  0.07396024  0.12007860  0.19560009     0.13700
H350        H  0.12188065  0.02221793  0.16469264     0.13700
C351        C  0.21311016  0.22716614  0.14863898    -0.12400
C352        C  0.20310282  0.20757736  0.17182619    -0.13900
C353        C  0.21322689  0.22750002  0.35315142    -0.12400
C354        C  0.20343486  0.20630149  0.33164253    -0.13900
C355        C  0.25091009  0.48087366  0.10097258    -0.12400
C356        C  0.23675789  0.46425004  0.07950252    -0.13900
C357        C  0.24411386  0.45825124  0.41962015    -0.12400
C358        C  0.25614552  0.47577072  0.39640327    -0.13900
C359        C  0.07993070  0.41053745  0.08901784    -0.12400
C360        C  0.09263192  0.42629506  0.05857942     0.09700
C361        C  0.07742953  0.45444447  0.04114850    -0.12400
C362        C  0.05103647  0.46815130  0.05475543    -0.12400
C363        C  0.03906320  0.45423545  0.08637689     0.09700
C364        C  0.05340124  0.42470514  0.10303342    -0.12400
H365        H  0.09096802  0.38838542  0.10254073     0.13700
H366        H  0.08626773  0.46643998  0.01699315     0.13700
H367        H  0.04098985  0.49114610  0.04141522     0.13700
H368        H  0.04449518  0.41318358  0.12731783     0.13700
C369        C  0.21331273  0.27563120  0.39854922    -0.12400
C370        C  0.20340116  0.29513585  0.42183147    -0.13900
C371        C  0.20311503  0.29656175  0.08202207    -0.12400
C372        C  0.21301643  0.27539805  0.10345630    -0.13900
C373        C  0.05340994  0.07647631  0.35334602    -0.12400
C374        C  0.03930098  0.04706447  0.33612538     0.09700
C375        C  0.05130711  0.03418228  0.30416745    -0.12400
C376        C  0.07751328  0.04865960  0.29077844    -0.12400
C377        C  0.09258683  0.07650862  0.30881135     0.09700
C378        C  0.07982737  0.09138485  0.33958023    -0.12400
H379        H  0.04444232  0.08731127  0.37785674     0.13700
H380        H  0.04146057  0.51136812  0.29033673     0.13700
H381        H  0.08639897  0.03736143  0.26636615     0.13700
H382        H  0.09077051  0.11330942  0.35357387     0.13700
C383        C  0.04842900  0.42386771  0.42234563    -0.12400
C384        C  0.04850556  0.45924623  0.40741789     0.09700
C385        C  0.07534524  0.47806832  0.40322160    -0.12400
C386        C  0.10148457  0.46235430  0.41485356    -0.12400
C387        C  0.10130188  0.42751022  0.43104633     0.09700
C388        C  0.07453206  0.40814501  0.43400532    -0.12400
H389        H  0.02803811  0.40869955  0.42585825     0.13700
H390        H  0.07620785  0.50492059  0.39088226     0.13700
H391        H  0.12166458  0.47813003  0.41231013     0.13700
H392        H  0.07346363  0.38151426  0.44679012     0.13700
C393        C  0.90329468  0.03431709  0.06703236    -0.12400
C394        C  0.89933983  0.07252516  0.06671846     0.09700
C395        C  0.92219513  0.09544108  0.07809870    -0.12400
C396        C  0.94819736  0.08015663  0.09089305    -0.12400
C397        C  0.95199607  0.04166560  0.09144342     0.09700
C398        C  0.92948398  0.01922614  0.07826599    -0.12400
H399        H  0.88655206  0.01592615  0.05718315     0.13700
H400        H  0.91992637  0.12507641  0.07710211     0.13700
H401        H  0.96472001  0.09871911  0.10060548     0.13700
H402        H  0.93171333  0.98954256  0.07821597     0.13700
C403        C  0.92995645  0.09583194  0.42046630    -0.12400
C404        C  0.91476827  0.07968117  0.44903501     0.09700
C405        C  0.92935761  0.05342558  0.46969158    -0.12400
C406        C  0.95686960  0.03994786  0.45936304    -0.12400
C407        C  0.96983466  0.05157162  0.42753354     0.09700
C408        C  0.95749081  0.08178614  0.40976197    -0.12400
H409        H  0.91956957  0.11689247  0.40478991     0.13700
H410        H  0.91866036  0.04157096  0.49279348     0.13700
H411        H  0.96574908  0.01651078  0.47328643     0.13700
H412        H  0.96698321  0.09081467  0.38478826     0.13700
C413        C  0.76643535  0.03650279  0.41794518    -0.12400
C414        C  0.75190862  0.01962828  0.39682912    -0.13900
C415        C  0.75853116  0.04254174  0.07704085    -0.12400
C416        C  0.74646066  0.02521209  0.10049552    -0.13900
C417        C  0.93012878  0.44385838  0.21999816    -0.12400
C418        C  0.91503895  0.41915790  0.19817623     0.09700
C419        C  0.92978905  0.40448288  0.16862468    -0.12400
C420        C  0.95746278  0.41863607  0.15841240    -0.12400
C421        C  0.97034540  0.44755263  0.17762374     0.09700
C422        C  0.95778357  0.45738434  0.21018515    -0.12400
H423        H  0.91966868  0.45463393  0.24364574     0.13700
H424        H  0.91895939  0.38467532  0.15192056     0.13700
H425        H  0.96661653  0.41101598  0.13285696     0.13700
H426        H  0.96704839  0.47978606  0.22525146     0.13700
C427        C  0.92172830  0.40477038  0.32848482    -0.12400
C428        C  0.89960438  0.42762098  0.31531325     0.09700
C429        C  0.90438197  0.46567438  0.31364097    -0.12400
C430        C  0.93069926  0.48068826  0.32468314    -0.12400
C431        C  0.95248903  0.45842420  0.33958742     0.09700
C432        C  0.94781578  0.42006306  0.34110515    -0.12400
H433        H  0.91875739  0.37520832  0.32917066     0.13700
H434        H  0.88819730  0.48389234  0.30236770     0.13700
H435        H  0.93351920  0.01025802  0.32322035     0.13700
H436        H  0.96360242  0.40166338  0.35257383     0.13700
C437        C  0.75915383  0.45758183  0.32599010    -0.12400
C438        C  0.74729171  0.47494494  0.34953270    -0.13900
C439        C  0.76609384  0.46272485  0.16747866    -0.12400
C440        C  0.75122179  0.47972992  0.14684800    -0.13900
C441        C  0.75232605  0.22924069  0.35196490    -0.12400
C442        C  0.73821821  0.21259664  0.33047095    -0.13900
C443        C  0.75684193  0.27471721  0.39808162    -0.12400
C444        C  0.74477733  0.29245240  0.42107224    -0.13900
C445        C  0.79048854  0.27331329  0.34863040    -0.12400
C446        C  0.79959388  0.29285143  0.32505363    -0.13900
C447        C  0.80059340  0.20434437  0.41556522    -0.12400
C448        C  0.79099384  0.22554195  0.39406193    -0.13900
C449        C  0.75187594  0.27039959  0.10161699    -0.12400
C450        C  0.73749549  0.28697193  0.08032894    -0.13900
C451        C  0.74572798  0.20687078  0.17080875    -0.12400
C452        C  0.75736354  0.22491085  0.14769952    -0.13900
C453        C  0.79091659  0.27467923  0.14322422    -0.12400
C454        C  0.80053849  0.29571382  0.16481920    -0.13900
C455        C  0.79959374  0.20723697  0.07471172    -0.12400
C456        C  0.79046674  0.22698861  0.09800428    -0.13900
C457        C  0.77285984  0.24929313  0.62265188    -0.01600
C458        C  0.77290184  0.25070659  0.87322995    -0.01600
Fe459      Fe  0.77818467  0.37507508  0.74586839     1.65800
Fe460      Fe  0.82931202  0.44178080  0.74867297     1.73200
Fe461      Fe  0.85129942  0.35244271  0.74595740     1.52000
O462        O  0.83235814  0.32434343  0.78787891    -0.80800
O463        O  0.86891666  0.43569364  0.72168256    -0.79100
O464        O  0.78405775  0.33130112  0.78022531    -0.83300
O465        O  0.78516728  0.34222271  0.70235370    -0.78100
O466        O  0.87663542  0.38199144  0.78123254    -0.79900
O467        O  0.80723458  0.45266752  0.70256959    -0.82600
C468        C  0.80591021  0.32063549  0.69341139     0.98100
C469        C  0.80577025  0.31735010  0.79607499     1.05600
O470        O  0.81964070  0.38952400  0.74639323    -1.11600
O471        O  0.79287882  0.45717397  0.77903850    -0.74100
O472        O  0.76760423  0.40608832  0.79009452    -0.77500
O473        O  0.83040729  0.31932209  0.70908882    -0.78200
C474        C  0.77390481  0.43923165  0.79690163     0.97000
O475        O  0.76716877  0.41767053  0.71133774    -0.76200
O476        O  0.85154457  0.43319672  0.79428547    -0.81400
C477        C  0.88412155  0.41021943  0.70751717     0.99600
C478        C  0.87396076  0.41262669  0.79723304     1.05600
O479        O  0.87460230  0.37750092  0.70520303    -0.77000
C480        C  0.78114921  0.44312314  0.69496552     1.03900
Fe481      Fe  0.77810655  0.12439602  0.99624769     1.65800
Fe482      Fe  0.82908227  0.05769776  0.99999777     1.73200
Fe483      Fe  0.85128767  0.14704438  0.99653346     1.54400
O484        O  0.83052739  0.18016418  0.95953157    -0.80800
O485        O  0.85128787  0.06671359  0.54555747    -0.79100
O486        O  0.78524243  0.15731916  0.95272375    -0.83300
O487        O  0.78402925  0.16821078  0.53045492    -0.78100
O488        O  0.87463533  0.12170665  0.95608376    -0.79900
O489        O  0.79265037  0.04251844  0.53051242    -0.82600
C490        C  0.80574990  0.18236679  0.54616423     0.98100
C491        C  0.80599299  0.17904192  0.94391408     1.05600
O492        O  0.81952789  0.10994480  0.99712066    -1.11600
O493        O  0.80707427  0.04630960  0.95394396    -0.74100
O494        O  0.76718603  0.08170987  0.96171724    -0.77500
O495        O  0.83234064  0.17533280  0.53815732    -0.78200
C496        C  0.78118186  0.05604045  0.94576580     0.97000
O497        O  0.76719507  0.09356536  0.54055426    -0.76200
O498        O  0.86864637  0.06362259  0.97295994    -0.81400
C499        C  0.87376800  0.08727691  0.54832492     0.99600
C500        C  0.88398166  0.08894434  0.95862900     1.05600
O501        O  0.87652447  0.11774119  0.53201411    -0.77000
C502        C  0.77350817  0.06057679  0.54790038     1.03900
C503        C  0.97710409  0.47798296  0.85851638     0.87400
C504        C  0.99470701  0.50559607  0.83540428    -0.52800
C505        C  0.01494250  0.02605012  0.85352732     0.10300
C506        C  0.01491522  0.01758638  0.89320208     0.21300
C507        C  0.00088281  0.45499436  0.87638794    -0.53600
C508        C  0.02094354  0.47562780  0.89426786     0.10400
C509        C  0.96355348  0.50081055  0.88804442    -0.53100
C510        C  0.98267706  0.02235159  0.90543517     0.11000
H511        H  0.99226364  0.00724795  0.80701952     0.15500
H512        H  0.03062424  0.03417456  0.90863544     0.01200
H513        H  0.00347937  0.42560381  0.87294873     0.15800
H514        H  0.93990369  0.00205532  0.89321896     0.15600
Fe515      Fe  0.22497819  0.37704325  0.50132870     1.65800
Fe516      Fe  0.17377818  0.44449737  0.49717713     1.73200
Fe517      Fe  0.15163207  0.35504838  0.50204119     1.54400
O518        O  0.17039282  0.32636490  0.95974770    -0.80800
O519        O  0.13615839  0.43925352  0.52748073    -0.79100
O520        O  0.21882657  0.33402412  0.96633836    -0.83300
O521        O  0.21813144  0.34343708  0.54443448    -0.78100
O522        O  0.12565265  0.38428274  0.96718173    -0.79900
O523        O  0.19744066  0.45662696  0.54162614    -0.82600
C524        C  0.19736363  0.32205945  0.55377859     0.98100
C525        C  0.19701870  0.31971238  0.95092893     1.05600
O526        O  0.18346396  0.39205488  0.50043935    -1.11600
O527        O  0.20869981  0.45836831  0.96424235    -0.74100
O528        O  0.23650891  0.40853232  0.95777994    -0.77500
O529        O  0.17254636  0.32154935  0.53879216    -0.78200
C530        C  0.22905810  0.44066132  0.94873391     0.97000
O531        O  0.23598187  0.41860795  0.53652804    -0.76200
O532        O  0.14913288  0.43628252  0.95313148    -0.81400
C533        C  0.12126442  0.41455595  0.54331042     0.99600
C534        C  0.12727959  0.41471628  0.95056781     1.05600
O535        O  0.12893313  0.38090172  0.54325059    -0.77000
C536        C  0.22248420  0.44534133  0.55122458     1.03900
Fe537      Fe  0.22493751  0.12573312  0.75113300     1.65800
Fe538      Fe  0.17395706  0.05807088  0.74838756     1.73200
Fe539      Fe  0.15164897  0.14735232  0.75205382     1.54400
O540        O  0.17291437  0.18133537  0.78826557    -0.80800
O541        O  0.14944815  0.06547291  0.70410252    -0.79100
O542        O  0.21829655  0.15896188  0.79452878    -0.83300
O543        O  0.21854322  0.16914247  0.71663042    -0.78100
O544        O  0.12907038  0.12199097  0.79373484    -0.79900
O545        O  0.20908396  0.04390772  0.71598468    -0.82600
C546        C  0.19673171  0.18289804  0.70085679     0.98100
C547        C  0.19765662  0.18066219  0.80350303     1.05600
O548        O  0.18349078  0.11055770  0.75081413    -1.11600
O549        O  0.19749857  0.04687294  0.79306088    -0.74100
O550        O  0.23656408  0.08379011  0.78578281    -0.77500
O551        O  0.17013619  0.17559632  0.70929314    -0.78200
C552        C  0.22302796  0.05758091  0.80143000     0.97000
O553        O  0.23563994  0.09455871  0.70717247    -0.76200
O554        O  0.13629084  0.06359349  0.77838972    -0.81400
C555        C  0.12749085  0.08676517  0.70125200     0.99600
C556        C  0.12135700  0.08833437  0.79396163     1.05600
O557        O  0.12567010  0.11734840  0.71759962    -0.77000
C558        C  0.22868126  0.06189658  0.69929760     1.03900
C559        C  0.23127266  0.25285770  0.87414880    -0.01600
C560        C  0.23108454  0.24995974  0.62423433    -0.01600
C561        C  0.97688480  0.02239756  0.61007185     0.87400
C562        C  0.00099523  0.04545131  0.62726223    -0.52800
C563        C  0.02133002  0.02486939  0.64476787     0.10300
C564        C  0.01520261  0.48285965  0.64391299     0.21300
C565        C  0.99404993  0.99474638  0.58663656    -0.53600
C566        C  0.01460822  0.47444977  0.60428744     0.10400
C567        C  0.96382391  0.99977380  0.64012860    -0.53100
C568        C  0.98314162  0.47800474  0.65690886     0.11000
H569        H  0.00339826  0.07487777  0.62389956     0.15500
H570        H  0.03110800  0.46624233  0.65899533     0.01200
H571        H  0.99127380  0.99318397  0.55830183     0.15800
H572        H  0.94024371  0.99840552  0.64578453     0.15600
Fe573      Fe  0.27839387  0.37605690  0.74457748     1.65800
Fe574      Fe  0.32972274  0.30979854  0.74799600     1.73200
Fe575      Fe  0.35146492  0.39930333  0.74452025     1.54400
O576        O  0.33023414  0.43248668  0.70793318    -0.80800
O577        O  0.35212429  0.31904149  0.79338140    -0.79100
O578        O  0.28521514  0.40888374  0.70102882    -0.83300
O579        O  0.28421449  0.41992574  0.77877302    -0.78100
O580        O  0.37473467  0.37430950  0.70365878    -0.79900
O581        O  0.29354174  0.29437594  0.77884768    -0.82600
C582        C  0.30588728  0.43388656  0.79473723     0.98100
C583        C  0.30570064  0.43100075  0.69233732     1.05600
O584        O  0.31989491  0.36193725  0.74518990    -1.11600
O585        O  0.30751462  0.29814826  0.70214452    -0.74100
O586        O  0.26754287  0.33334115  0.71013708    -0.77500
O587        O  0.33250989  0.42704271  0.78661112    -0.78200
C588        C  0.28155217  0.30773919  0.69413462     0.97000
O589        O  0.26776227  0.34517125  0.78891378    -0.76200
O590        O  0.36905366  0.31614682  0.72053663    -0.81400
C591        C  0.37462851  0.33960345  0.79585353     0.99600
C592        C  0.38418658  0.34155397  0.70601426     1.05600
O593        O  0.37721821  0.37008170  0.77955254    -0.77000
C594        C  0.27431667  0.31226114  0.79628009     1.03900
Fe595      Fe  0.27761645  0.12644417  0.99507983     1.65800
Fe596      Fe  0.32932583  0.19249694  0.99824748     1.73200
Fe597      Fe  0.35045648  0.10285983  0.99570824     1.54400
O598        O  0.33141450  0.07595218  0.53810286    -0.80800
O599        O  0.36847143  0.18555149  0.97065001    -0.79100
O600        O  0.28320571  0.08262503  0.52938673    -0.83300
O601        O  0.28450027  0.09350482  0.95156337    -0.78100
O602        O  0.37648207  0.13225868  0.53031896    -0.79900
O603        O  0.30710663  0.20397659  0.95236222    -0.82600
C604        C  0.30488459  0.07108855  0.94338641     0.98100
C605        C  0.30474461  0.06897296  0.54579168     1.05600
O606        O  0.31915151  0.14041373  0.49590690    -1.11600
O607        O  0.29326386  0.20817570  0.52908853    -0.74100
O608        O  0.26710977  0.15753723  0.53925920    -0.77500
O609        O  0.32909740  0.06930408  0.95960415    -0.78200
C610        C  0.27386916  0.19043758  0.54649683     0.97000
O611        O  0.26689803  0.16914930  0.96054301    -0.76200
O612        O  0.35189345  0.18368971  0.54363182    -0.81400
C613        C  0.38321199  0.15978746  0.95626278     0.99600
C614        C  0.37417183  0.16285731  0.54638813     1.05600
O615        O  0.37352547  0.12710990  0.95443277    -0.77000
C616        C  0.28106807  0.19460232  0.94442464     1.03900
C617        C  0.27238838  0.99993364  0.87179298    -0.01600
C618        C  0.27141724  0.00232782  0.62235139    -0.01600
C619        C  0.47713660  0.27402484  0.85800643     0.87400
C620        C  0.50037464  0.29635036  0.87771343    -0.52800
C621        C  0.52005927  0.27496592  0.89551007     0.10300
C622        C  0.51403724  0.23305912  0.89260806     0.21300
C623        C  0.49544117  0.24758260  0.83454088    -0.53600
C624        C  0.51499793  0.22637991  0.85276627     0.10400
C625        C  0.46287794  0.24992781  0.88622848    -0.53100
C626        C  0.48157619  0.22763892  0.90336162     0.11000
H627        H  0.50293097  0.32588996  0.87549202     0.15500
H628        H  0.52937402  0.21555094  0.90768163     0.01200
H629        H  0.49441708  0.24759608  0.80594459     0.15800
H630        H  0.43913562  0.24839022  0.89059147     0.15600
C631        C  0.73120493  0.99843038  0.87510042    -0.01600
Fe632      Fe  0.72555653  0.12545570  0.75239808     1.65800
Fe633      Fe  0.67508239  0.19389486  0.74782198     1.73200
Fe634      Fe  0.65171602  0.10486746  0.75392660     1.54400
O635        O  0.67014577  0.07487455  0.71210458    -0.80800
O636        O  0.63822449  0.18980100  0.77896707    -0.79100
O637        O  0.71873791  0.08308597  0.71691257    -0.83300
O638        O  0.71846689  0.09130769  0.79507710    -0.78100
O639        O  0.62596097  0.13394240  0.71871448    -0.79900
O640        O  0.69947125  0.20616686  0.79165907    -0.82600
C641        C  0.69730096  0.07099940  0.80529888     0.98100
C642        C  0.69663805  0.06833502  0.70246786     1.05600
O643        O  0.68412845  0.14125463  0.75156079    -1.11600
O644        O  0.70954271  0.20679101  0.71421154    -0.74100
O645        O  0.73795639  0.15734283  0.70931384    -0.77500
O646        O  0.67212838  0.07158711  0.79121286    -0.78200
C647        C  0.73039056  0.18924236  0.69964566     0.97000
O648        O  0.73688543  0.16627862  0.78817251    -0.76200
O649        O  0.64942571  0.18589183  0.70439420    -0.81400
C650        C  0.62263785  0.16594604  0.79490869     0.99600
C651        C  0.62748696  0.16437407  0.70208893     1.05600
O652        O  0.62916321  0.13189587  0.79467019    -0.77000
C653        C  0.72394873  0.19385710  0.80209536     1.03900
C654        C  0.73036036  0.00114459  0.62559105    -0.01600
Fe655      Fe  0.72527165  0.37408782  0.50210732     1.65800
Fe656      Fe  0.67425855  0.30633239  0.49830946     1.73200
Fe657      Fe  0.65194400  0.39559018  0.50267801     1.54400
O658        O  0.67303767  0.42981623  0.53871340    -0.80800
O659        O  0.64926203  0.31402211  0.95429550    -0.79100
O660        O  0.71829363  0.40743360  0.54540013    -0.83300
O661        O  0.71886665  0.41722482  0.96725429    -0.78100
O662        O  0.62969384  0.37012595  0.54444444    -0.79900
O663        O  0.70923951  0.29252424  0.96550923    -0.82600
C664        C  0.69703991  0.43087250  0.95137947     0.98100
C665        C  0.69761095  0.42909806  0.55424338     1.05600
O666        O  0.68383350  0.35879829  0.50123064    -1.11600
O667        O  0.69794204  0.29460767  0.54282439    -0.74100
O668        O  0.73657373  0.33248982  0.53715302    -0.77500
O669        O  0.67041760  0.42363239  0.95980052    -0.78200
C670        C  0.72308557  0.30585444  0.55213183     0.97000
O671        O  0.73676400  0.34267639  0.95848455    -0.76200
O672        O  0.63689358  0.31182443  0.52865381    -0.81400
C673        C  0.62707930  0.33511348  0.95230468     0.99600
C674        C  0.62200367  0.33646262  0.54442338     1.05600
O675        O  0.62559926  0.36565889  0.96869140    -0.77000
C676        C  0.72953496  0.31030429  0.94984492     1.03900
C677        C  0.47740866  0.22687969  0.60877745     0.87400
C678        C  0.49546408  0.25371712  0.58535586    -0.52800
C679        C  0.51552504  0.27447506  0.60337196     0.10300
C680        C  0.51506182  0.26699442  0.64317778     0.21300
C681        C  0.50079741  0.20405966  0.62761726    -0.53600
C682        C  0.52085987  0.22497885  0.64528491     0.10400
C683        C  0.46368389  0.25054182  0.63760810    -0.53100
C684        C  0.48271107  0.27249191  0.65468029     0.11000
H685        H  0.49333302  0.25479551  0.55690386     0.15500
H686        H  0.53073919  0.28380446  0.65844846     0.01200
H687        H  0.50312730  0.17453385  0.62499144     0.15800
H688        H  0.43999160  0.25220617  0.64232304     0.15600
C689        C  0.57867229  0.29600303  0.54143576    -0.12400
C690        C  0.59327153  0.32451415  0.55911088     0.09700
C691        C  0.57997393  0.34013121  0.58919383    -0.12400
C692        C  0.55348583  0.32531485  0.60274940    -0.12400
C693        C  0.53989618  0.29526357  0.58597154     0.09700
C694        C  0.55241956  0.28159138  0.55463080    -0.12400
H695        H  0.58793336  0.28415643  0.51746255     0.13700
H696        H  0.59052375  0.36261100  0.60281712     0.13700
H697        H  0.54405135  0.33672363  0.62677213     0.13700
H698        H  0.54293674  0.25825757  0.54120015     0.13700
C699        C  0.70306763  0.45457695  0.58263575    -0.12400
C700        C  0.71249022  0.47571989  0.60444286    -0.13900
C701        C  0.57430245  0.15839842  0.68692207    -0.12400
C702        C  0.60129959  0.17712484  0.68277148     0.09700
C703        C  0.60161594  0.21133518  0.66537415    -0.12400
C704        C  0.57546098  0.22699866  0.65357391    -0.12400
C705        C  0.54843971  0.20877196  0.65880241     0.09700
C706        C  0.54819735  0.17404813  0.67506599    -0.12400
H707        H  0.57308944  0.13231802  0.70069807     0.13700
H708        H  0.62194892  0.22663461  0.66189991     0.13700
H709        H  0.57644663  0.25332845  0.64024961     0.13700
H710        H  0.52768164  0.15934297  0.67938147     0.13700
C711        C  0.71235171  0.02371969  0.65020402    -0.12400
C712        C  0.70256198  0.04336327  0.67349134    -0.13900
C713        C  0.70300687  0.04540075  0.83347872    -0.12400
C714        C  0.71299721  0.02402946  0.85466697    -0.13900
C715        C  0.70340649  0.45547563  0.92231371    -0.12400
C716        C  0.71333885  0.47524318  0.89923679    -0.13900
C717        C  0.55630051  0.22622647  0.80948316    -0.12400
C718        C  0.54035234  0.20758487  0.83581288     0.09700
C719        C  0.55137467  0.17423018  0.84910824    -0.12400
C720        C  0.57818669  0.15986594  0.83611643    -0.12400
C721        C  0.59459331  0.17944984  0.81055690     0.09700
C722        C  0.58304302  0.21251487  0.79720039    -0.12400
H723        H  0.54874809  0.25240031  0.79939894     0.13700
H724        H  0.53942869  0.15963532  0.86978682     0.13700
H725        H  0.58630819  0.13409112  0.84643693     0.13700
H726        H  0.59465447  0.22803173  0.77686631     0.13700
C727        C  0.54767146  0.32559038  0.92545477    -0.12400
C728        C  0.54761293  0.29063989  0.90970147     0.09700
C729        C  0.57440257  0.27172792  0.90546000    -0.12400
C730        C  0.60063972  0.28716262  0.91732449    -0.12400
C731        C  0.60066426  0.32186775  0.93372075     0.09700
C732        C  0.57386470  0.34103006  0.93732113    -0.12400
H733        H  0.52734230  0.34076445  0.92918679     0.13700
H734        H  0.57520747  0.24513390  0.89267241     0.13700
H735        H  0.62078531  0.27143970  0.91446392     0.13700
H736        H  0.57289281  0.36745594  0.95045337     0.13700
C737        C  0.42969014  0.19248757  0.96775408    -0.12400
C738        C  0.41389864  0.16841120  0.94602856     0.09700
C739        C  0.42754068  0.15459209  0.91540382    -0.12400
C740        C  0.45483260  0.16902313  0.90424312    -0.12400
C741        C  0.46841365  0.19725632  0.92365187     0.09700
C742        C  0.45692152  0.20642048  0.95689192    -0.12400
H743        H  0.42001096  0.20257304  0.99215425     0.13700
H744        H  0.41606561  0.13537392  0.89869667     0.13700
H745        H  0.46315900  0.16210559  0.87811609     0.13700
H746        H  0.46672389  0.22841095  0.97201315     0.13700
C747        C  0.40507236  0.21536811  0.56296088    -0.12400
C748        C  0.40001355  0.17738739  0.56445705     0.09700
C749        C  0.42196453  0.15420681  0.57762450    -0.12400
C750        C  0.44805482  0.16917088  0.59067709    -0.12400
C751        C  0.45286119  0.20749499  0.58957470     0.09700
C752        C  0.43138371  0.23002453  0.57435720    -0.12400
H753        H  0.38908315  0.23382655  0.55164199     0.13700
H754        H  0.41882505  0.12467013  0.57804487     0.13700
H755        H  0.46377219  0.15061585  0.60209117     0.13700
H756        H  0.43440114  0.25957848  0.57300691     0.13700
C757        C  0.29954141  0.04590691  0.91495494    -0.12400
C758        C  0.29024961  0.02493414  0.89306922    -0.13900
C759        C  0.29827537  0.04469401  0.57469483    -0.12400
C760        C  0.28895357  0.02510946  0.59802353    -0.13900
C761        C  0.42963853  0.34667513  0.66649723    -0.12400
C762        C  0.41498598  0.33235061  0.69632177     0.09700
C763        C  0.42994499  0.30735619  0.71796545    -0.12400
C764        C  0.45728203  0.29325724  0.70780778    -0.12400
C765        C  0.46974317  0.30292510  0.67515262     0.09700
C766        C  0.45699696  0.33191948  0.65591676    -0.12400
H767        H  0.41891443  0.36663736  0.64987483     0.13700
H768        H  0.41956223  0.29674632  0.74174975     0.13700
H769        H  0.46637971  0.27071343  0.72281907     0.13700
H770        H  0.46604519  0.33933877  0.63023670     0.13700
C771        C  0.40522972  0.28673354  0.81173624    -0.12400
C772        C  0.40039710  0.32471961  0.81370867     0.09700
C773        C  0.42247220  0.34757411  0.82713708    -0.12400
C774        C  0.44841551  0.33223612  0.84014094    -0.12400
C775        C  0.45296603  0.29389231  0.83863298     0.09700
C776        C  0.43145455  0.27174877  0.82292768    -0.12400
H777        H  0.38914276  0.26855156  0.80015463     0.13700
H778        H  0.41950744  0.37712135  0.82787827     0.13700
H779        H  0.46420834  0.35050925  0.85185829     0.13700
H780        H  0.43431030  0.24220314  0.82118397     0.13700
C781        C  0.29958430  0.45821615  0.82376216    -0.12400
C782        C  0.29021452  0.47756303  0.84729759    -0.13900
C783        C  0.28975077  0.47735523  0.64296217    -0.12400
C784        C  0.29989139  0.45633961  0.66421348    -0.13900
C785        C  0.26669704  0.28811907  0.66649541    -0.12400
C786        C  0.25193147  0.27124317  0.64564726    -0.13900
C787        C  0.24712723  0.22614975  0.59896431    -0.12400
C788        C  0.25909650  0.20875513  0.57554599    -0.13900
C789        C  0.25188569  0.23137971  0.89570659    -0.12400
C790        C  0.26637064  0.21431459  0.91670242    -0.13900
C791        C  0.24751612  0.27672945  0.84898426    -0.12400
C792        C  0.25951739  0.29410114  0.82549584    -0.13900
C793        C  0.25198053  0.02157090  0.85045418    -0.12400
C794        C  0.23776326  0.03852115  0.82927795    -0.13900
C795        C  0.24347377  0.04393834  0.67032351    -0.12400
C796        C  0.25533844  0.02616002  0.64726008    -0.13900
C797        C  0.07569724  0.02234065  0.65466643    -0.12400
C798        C  0.04892832  0.04143022  0.65786562     0.09700
C799        C  0.04894734  0.07719571  0.67191165    -0.12400
C800        C  0.07500133  0.09308960  0.68358933    -0.12400
C801        C  0.10165422  0.07350192  0.68166665     0.09700
C802        C  0.10179088  0.03820484  0.66641582    -0.12400
H803        H  0.07655138  0.49520512  0.64300941     0.13700
H804        H  0.02865037  0.09259693  0.67478385     0.13700
H805        H  0.07395822  0.12008299  0.69560634     0.13700
H806        H  0.12188164  0.02222685  0.66469171     0.13700
C807        C  0.21310792  0.22716837  0.64864097    -0.12400
C808        C  0.20310144  0.20757963  0.67182900    -0.13900
C809        C  0.21322781  0.22749965  0.85315673    -0.12400
C810        C  0.20343551  0.20630132  0.83164799    -0.13900
C811        C  0.25090668  0.48087272  0.60097395    -0.12400
C812        C  0.23675532  0.46424935  0.57950270    -0.13900
C813        C  0.24411558  0.45825078  0.91962339    -0.12400
C814        C  0.25614663  0.47577090  0.89640651    -0.13900
C815        C  0.07992780  0.41053570  0.58901201    -0.12400
C816        C  0.09263115  0.42629454  0.55857541     0.09700
C817        C  0.07743182  0.45444810  0.54114659    -0.12400
C818        C  0.05104010  0.46815783  0.55475416    -0.12400
C819        C  0.03906496  0.45424066  0.58637396     0.09700
C820        C  0.05339964  0.42470651  0.60302845    -0.12400
H821        H  0.09096269  0.38838057  0.60253319     0.13700
H822        H  0.08627150  0.46644488  0.51699263     0.13700
H823        H  0.04099597  0.49115559  0.54141581     0.13700
H824        H  0.04449198  0.41318440  0.62731173     0.13700
C825        C  0.21331245  0.27563173  0.89855256    -0.12400
C826        C  0.20339977  0.29513596  0.92183441    -0.13900
C827        C  0.20311429  0.29656496  0.58202251    -0.12400
C828        C  0.21301429  0.27540185  0.60345836    -0.13900
C829        C  0.05341089  0.07647776  0.85335237    -0.12400
C830        C  0.03930019  0.04706861  0.83612969     0.09700
C831        C  0.05130496  0.03418854  0.80417023    -0.12400
C832        C  0.07751137  0.04866538  0.79078143    -0.12400
C833        C  0.09258648  0.07651174  0.80881618     0.09700
C834        C  0.07982858  0.09138574  0.83958690    -0.12400
H835        H  0.04444447  0.08731084  0.87786447     0.13700
H836        H  0.04145747  0.51137630  0.79033844     0.13700
H837        H  0.08639603  0.03736896  0.76636790     0.13700
H838        H  0.09077311  0.11330810  0.85358214     0.13700
C839        C  0.04843259  0.42386449  0.92233951    -0.12400
C840        C  0.04850931  0.45924354  0.90741296     0.09700
C841        C  0.07534892  0.47806575  0.90321716    -0.12400
C842        C  0.10148793  0.46235213  0.91485050    -0.12400
C843        C  0.10130472  0.42750850  0.93104421     0.09700
C844        C  0.07453529  0.40814224  0.93400064    -0.12400
H845        H  0.02804174  0.40869603  0.92585103     0.13700
H846        H  0.07621148  0.50491817  0.89087816     0.13700
H847        H  0.12166779  0.47812824  0.91230836     0.13700
H848        H  0.07346663  0.38151145  0.94678537     0.13700
C849        C  0.90329856  0.03431725  0.56702746    -0.12400
C850        C  0.89934062  0.07252467  0.56671660     0.09700
C851        C  0.92219395  0.09544293  0.57809834    -0.12400
C852        C  0.94819742  0.08016098  0.59089160    -0.12400
C853        C  0.95199907  0.04167049  0.59143902     0.09700
C854        C  0.92948906  0.01922900  0.57825973    -0.12400
H855        H  0.88655747  0.01592493  0.55717678     0.13700
H856        H  0.91992257  0.12507798  0.57710388     0.13700
H857        H  0.96471843  0.09872457  0.60060614     0.13700
H858        H  0.93172081  0.98954572  0.57820786     0.13700
C859        C  0.92995783  0.09582846  0.92046456    -0.12400
C860        C  0.91477012  0.07968220  0.94903603     0.09700
C861        C  0.92935948  0.05342867  0.96969499    -0.12400
C862        C  0.95687115  0.03994904  0.95936741    -0.12400
C863        C  0.96983630  0.05156885  0.92753662     0.09700
C864        C  0.95749203  0.08178092  0.90976141    -0.12400
H865        H  0.91957074  0.11688675  0.90478564     0.13700
H866        H  0.91866243  0.04157716  0.99279856     0.13700
H867        H  0.96575058  0.01651366  0.97329345     0.13700
H868        H  0.96698408  0.09080598  0.88478632     0.13700
C869        C  0.76643974  0.03650571  0.91794286    -0.12400
C870        C  0.75191380  0.01963155  0.89682595    -0.13900
C871        C  0.75852945  0.04253715  0.57704100    -0.12400
C872        C  0.74645832  0.02520840  0.60049587    -0.13900
C873        C  0.93013279  0.44385686  0.71999354    -0.12400
C874        C  0.91504054  0.41916172  0.69816854     0.09700
C875        C  0.92978755  0.40449234  0.66861229    -0.12400
C876        C  0.95746129  0.41864530  0.65840014    -0.12400
C877        C  0.97034670  0.44755679  0.67761577     0.09700
C878        C  0.95778726  0.45738343  0.71017988    -0.12400
H879        H  0.91967490  0.45462763  0.74364479     0.13700
H880        H  0.91895561  0.38468948  0.65190529     0.13700
H881        H  0.96661289  0.41102993  0.63284230     0.13700
H882        H  0.96705412  0.47978151  0.72524927     0.13700
C883        C  0.92173435  0.40477327  0.82847344    -0.12400
C884        C  0.89960707  0.42762462  0.81531087     0.09700
C885        C  0.90438045  0.46567926  0.81364912    -0.12400
C886        C  0.93069691  0.48069355  0.82469310    -0.12400
C887        C  0.95249009  0.45842795  0.83958846     0.09700
C888        C  0.94782124  0.42006573  0.84109503    -0.12400
H889        H  0.91876684  0.37521046  0.82915054     0.13700
H890        H  0.88819312  0.48389835  0.80238291     0.13700
H891        H  0.93351331  0.01026385  0.82323850     0.13700
H892        H  0.96361117  0.40166463  0.85255529     0.13700
C893        C  0.75915863  0.45758610  0.82598676    -0.12400
C894        C  0.74729662  0.47494991  0.84952893    -0.13900
C895        C  0.76609432  0.46272300  0.66747790    -0.12400
C896        C  0.75122104  0.47972757  0.64684831    -0.13900
C897        C  0.75232708  0.22924577  0.85195990    -0.12400
C898        C  0.73821763  0.21260228  0.83046678    -0.13900
C899        C  0.75684496  0.27472143  0.89807754    -0.12400
C900        C  0.74478024  0.29245692  0.92106808    -0.13900
C901        C  0.79049383  0.27331435  0.84862785    -0.12400
C902        C  0.79960214  0.29285224  0.82505234    -0.13900
C903        C  0.80059370  0.20434523  0.91556233    -0.12400
C904        C  0.79099405  0.22554265  0.89405881    -0.13900
C905        C  0.75187977  0.27039638  0.60161884    -0.12400
C906        C  0.73749823  0.28696822  0.58033155    -0.13900
C907        C  0.74572912  0.20686904  0.67080940    -0.12400
C908        C  0.75736663  0.22490892  0.64770160    -0.13900
C909        C  0.79092023  0.27467692  0.64322609    -0.12400
C910        C  0.80054209  0.29571267  0.66482005    -0.13900
C911        C  0.79959644  0.20723246  0.57471498    -0.12400
C912        C  0.79047037  0.22698491  0.59800735    -0.13900
C913        C  0.77284712  0.74930413  0.12265126    -0.01600
C914        C  0.77289088  0.75070810  0.37323375    -0.01600
Fe915      Fe  0.77817756  0.87507759  0.24586422     1.65800
Fe916      Fe  0.82930646  0.94178063  0.24867961     1.73200
Fe917      Fe  0.85129191  0.85244076  0.24596113     1.52000
O918        O  0.83234564  0.82434087  0.28787909    -0.80800
O919        O  0.86891141  0.93569279  0.22169030    -0.79100
O920        O  0.78404622  0.83130109  0.28022008    -0.83300
O921        O  0.78516354  0.84222856  0.20234849    -0.78100
O922        O  0.87662670  0.88198506  0.28124041    -0.79900
O923        O  0.80723070  0.95267476  0.20257552    -0.82600
C924        C  0.80590600  0.82064036  0.19340741     0.98100
C925        C  0.80575698  0.81734874  0.29607222     1.05600
O926        O  0.81963414  0.88952437  0.24639487    -1.11600
O927        O  0.79287310  0.95717250  0.27904590    -0.74100
O928        O  0.76759325  0.90608842  0.29009096    -0.77500
O929        O  0.83040161  0.81932355  0.20908789    -0.78200
C930        C  0.77389590  0.93922985  0.29690394     0.97000
O931        O  0.76716527  0.91767510  0.21133401    -0.76200
O932        O  0.85153733  0.93319150  0.29429277    -0.81400
C933        C  0.88411869  0.91021934  0.20752709     0.99600
C934        C  0.87395292  0.91262052  0.29724046     1.05600
O935        O  0.87460105  0.87749996  0.20521196    -0.77000
C936        C  0.78114629  0.94313040  0.19496654     1.03900
Fe937      Fe  0.77810133  0.62439437  0.49624991     1.65800
Fe938      Fe  0.82908198  0.55770077  0.50000306     1.73200
Fe939      Fe  0.85128244  0.64705047  0.49653638     1.54400
O940        O  0.83052320  0.68016597  0.45953093    -0.80800
O941        O  0.85128494  0.56672997  0.04556436    -0.79100
O942        O  0.78523575  0.65732623  0.45273102    -0.83300
O943        O  0.78401852  0.66821252  0.03045633    -0.78100
O944        O  0.87463484  0.62171255  0.45609032    -0.79900
O945        O  0.79265369  0.54252417  0.03051685    -0.82600
C946        C  0.80573741  0.68237557  0.04616311     0.98100
C947        C  0.80598690  0.67904672  0.44391782     1.05600
O948        O  0.81952414  0.60994725  0.49712383    -1.11600
O949        O  0.80707343  0.54630634  0.45395090    -0.74100
O950        O  0.76718682  0.58171244  0.46171281    -0.77500
O951        O  0.83232928  0.67534788  0.03815541    -0.78200
C952        C  0.78118290  0.55603966  0.44576690     0.97000
O953        O  0.76718937  0.59356534  0.04055079    -0.76200
O954        O  0.86864423  0.56362788  0.47296378    -0.81400
C955        C  0.87376392  0.58729434  0.04833457     0.99600
C956        C  0.88398014  0.58894966  0.45863430     1.05600
O957        O  0.87652047  0.61775912  0.03202406    -0.77000
C958        C  0.77350748  0.56057928  0.04790086     1.03900
C959        C  0.97710174  0.97797490  0.35851270     0.87400
C960        C  0.99471373  0.00557553  0.33539599    -0.52800
C961        C  0.01493713  0.52606139  0.35352779     0.10300
C962        C  0.01491293  0.51759544  0.39320209     0.21300
C963        C  0.00087331  0.95498656  0.37639889    -0.53600
C964        C  0.02093413  0.97562168  0.39427672     0.10400
C965        C  0.96354958  0.00081713  0.38802938    -0.53100
C966        C  0.98267480  0.52235520  0.40543746     0.11000
H967        H  0.99225819  0.50725810  0.30702067     0.15500
H968        H  0.03062065  0.53418623  0.40863480     0.01200
H969        H  0.00346665  0.92559424  0.37296979     0.15800
H970        H  0.93990225  0.50205490  0.39322122     0.15600
Fe971      Fe  0.22498003  0.87704226  0.00133034     1.65800
Fe972      Fe  0.17377930  0.94449720  0.99718339     1.73200
Fe973      Fe  0.15163443  0.85504660  0.00204905     1.54400
O974        O  0.17039239  0.82636725  0.45974450    -0.80800
O975        O  0.13616614  0.93925130  0.02749975    -0.79100
O976        O  0.21882648  0.83402657  0.46633306    -0.83300
O977        O  0.21813511  0.84343495  0.04443545    -0.78100
O978        O  0.12564812  0.88427834  0.46719161    -0.79900
O979        O  0.19745087  0.95663086  0.04162469    -0.82600
C980        C  0.19736872  0.82205529  0.05377902     0.98100
C981        C  0.19701796  0.81971622  0.45092344     1.05600
O982        O  0.18346581  0.89205445  0.00044419    -1.11600
O983        O  0.20869235  0.95836648  0.46423181    -0.74100
O984        O  0.23650891  0.90853545  0.45777790    -0.77500
O985        O  0.17255158  0.82154375  0.03879310    -0.78200
C986        C  0.22905383  0.94066138  0.44872684     0.97000
O987        O  0.23598702  0.91860374  0.03653091    -0.76200
O988        O  0.14912250  0.93628157  0.45314043    -0.81400
C989        C  0.12127497  0.91455083  0.04332967     0.99600
C990        C  0.12727024  0.91471319  0.45057994     1.05600
O991        O  0.12894341  0.88089674  0.04326476    -0.77000
C992        C  0.22249284  0.94534135  0.05122448     1.03900
Fe993      Fe  0.22492895  0.62573230  0.25112960     1.65800
Fe994      Fe  0.17394501  0.55807691  0.24837845     1.73200
Fe995      Fe  0.15164335  0.64735989  0.25205057     1.54400
O996        O  0.17291352  0.68134135  0.28825926    -0.80800
O997        O  0.14943936  0.56548691  0.20409232    -0.79100
O998        O  0.21829035  0.65895379  0.29453095    -0.83300
O999        O  0.21853721  0.66914858  0.21663469    -0.78100
O1000       O  0.12906527  0.62200101  0.29373314    -0.79900
O1001       O  0.20907214  0.54391259  0.21597555    -0.82600
C1002       C  0.19672723  0.68290219  0.20085672     0.98100
C1003       C  0.19765379  0.68066105  0.30350088     1.05600
O1004       O  0.18348198  0.61056181  0.25080961    -1.11600
O1005       O  0.19748412  0.54687229  0.29305241    -0.74100
O1006       O  0.23655386  0.58378172  0.28577204    -0.77500
O1007       O  0.17013109  0.67559904  0.20928820    -0.78200
C1008       C  0.22301532  0.55757495  0.30142004     0.97000
O1009       O  0.23562633  0.59456503  0.20716317    -0.76200
O1010       O  0.13627864  0.56360424  0.27838022    -0.81400
C1011       C  0.12748099  0.58677815  0.20124772     0.99600
C1012       C  0.12134801  0.58834574  0.29395616     1.05600
O1013       O  0.12566076  0.61735890  0.21759931    -0.77000
C1014       C  0.22866768  0.56190333  0.19928704     1.03900
C1015       C  0.23126924  0.75286349  0.37414110    -0.01600
C1016       C  0.23108866  0.74995365  0.12423329    -0.01600
C1017       C  0.97687407  0.52240353  0.11009138     0.87400
C1018       C  0.00097950  0.54545522  0.12729298    -0.52800
C1019       C  0.02131746  0.52487083  0.14478998     0.10300
C1020       C  0.01520317  0.98284614  0.14391339     0.21300
C1021       C  0.99404522  0.49476705  0.08664545    -0.53600
C1022       C  0.01460564  0.97441978  0.10429111     0.10400
C1023       C  0.96381561  0.49976214  0.14013752    -0.53100
C1024       C  0.98314218  0.97800481  0.15691424     0.11000
H1025       H  0.00337887  0.57488341  0.12394136     0.15500
H1026       H  0.03110543  0.96623076  0.15900201     0.01200
H1027       H  0.99126976  0.49321483  0.05831013     0.15800
H1028       H  0.94023570  0.49838721  0.14579325     0.15600
Fe1029     Fe  0.27840237  0.87604949  0.24456920     1.65800
Fe1030     Fe  0.32972715  0.80978671  0.24799748     1.73200
Fe1031     Fe  0.35147324  0.89928941  0.24451632     1.54400
O1032       O  0.33024661  0.93247074  0.20792539    -0.80800
O1033       O  0.35212517  0.81903219  0.29338550    -0.79100
O1034       O  0.28522773  0.90886910  0.20101786    -0.83300
O1035       O  0.28422238  0.91992267  0.27876201    -0.78100
O1036       O  0.37474234  0.87428843  0.20365726    -0.79900
O1037       O  0.29354170  0.79437042  0.27884361    -0.82600
C1038       C  0.30589468  0.93388199  0.29472884     0.98100
C1039       C  0.30571431  0.93098445  0.19232737     1.05600
O1040       O  0.31990206  0.86192608  0.24518657    -1.11600
O1041       O  0.30752305  0.79813523  0.20214350    -0.74100
O1042       O  0.26755204  0.83333036  0.21013214    -0.77500
O1043       O  0.33251742  0.92703491  0.28660479    -0.78200
C1044       C  0.28156135  0.80772718  0.19413144     0.97000
O1045       O  0.26776734  0.84517043  0.28890674    -0.76200
O1046       O  0.36906038  0.81612804  0.22054213    -0.81400
C1047       C  0.37462923  0.83959452  0.29585867     0.99600
C1048       C  0.38419246  0.84153205  0.20601370     1.05600
O1049       O  0.37722203  0.87006968  0.27955337    -0.77000
C1050       C  0.27431751  0.81225943  0.29627357     1.03900
Fe1051     Fe  0.27760610  0.62645240  0.49506818     1.65800
Fe1052     Fe  0.32931880  0.69250133  0.49824658     1.73200
Fe1053     Fe  0.35044419  0.60286251  0.49570132     1.54400
O1054       O  0.33141203  0.57595171  0.03809268    -0.80800
O1055       O  0.36846676  0.68555502  0.47065278    -0.79100
O1056       O  0.28320382  0.58262382  0.02937203    -0.83300
O1057       O  0.28449099  0.59351450  0.45155199    -0.78100
O1058       O  0.37648241  0.63225055  0.03030848    -0.79900
O1059       O  0.30710341  0.70398808  0.45235998    -0.82600
C1060       C  0.30487462  0.57109752  0.44337560     0.98100
C1061       C  0.30474173  0.56897293  0.04578009     1.05600
O1062       O  0.31915169  0.64041484  0.99589939    -1.11600
O1063       O  0.29326635  0.70817191  0.02909101    -0.74100
O1064       O  0.26710856  0.65753422  0.03925128    -0.77500
O1065       O  0.32908654  0.56931057  0.45959439    -0.78200
C1066       C  0.27386951  0.69043248  0.04649454     0.97000
O1067       O  0.26689418  0.66915891  0.46053063    -0.76200
O1068       O  0.35189361  0.68367784  0.04363261    -0.81400
C1069       C  0.38320550  0.65979063  0.45626313     0.99600
C1070       C  0.37417216  0.66284493  0.04638390     1.05600
O1071       O  0.37351596  0.62711468  0.45442908    -0.77000
C1072       C  0.28106597  0.69461365  0.44441712     1.03900
C1073       C  0.27237876  0.49993821  0.37178894    -0.01600
C1074       C  0.27141088  0.50233623  0.12234709    -0.01600
C1075       C  0.47713809  0.77402354  0.35801097     0.87400
C1076       C  0.50037202  0.79634542  0.37772817    -0.52800
C1077       C  0.52005530  0.77495701  0.39552285     0.10300
C1078       C  0.51403571  0.73305084  0.39260992     0.21300
C1079       C  0.49544752  0.74758941  0.33454223    -0.53600
C1080       C  0.51500121  0.72638170  0.35276676     0.10400
C1081       C  0.46287669  0.74991737  0.38622366    -0.53100
C1082       C  0.48157368  0.72762636  0.40335615     0.11000
H1083       H  0.50292782  0.82588579  0.37551330     0.15500
H1084       H  0.52937190  0.71553975  0.40768144     0.01200
H1085       H  0.49442763  0.74760997  0.30594559     0.15800
H1086       H  0.43913399  0.74837861  0.39058298     0.15600
C1087       C  0.73120690  0.49842721  0.37510344    -0.01600
Fe1088     Fe  0.72555836  0.62545476  0.25239632     1.65800
Fe1089     Fe  0.67508007  0.69388718  0.24782562     1.73200
Fe1090     Fe  0.65171873  0.60485809  0.25392516     1.54400
O1091       O  0.67015097  0.57486855  0.21210305    -0.80800
O1092       O  0.63822133  0.68978594  0.27896504    -0.79100
O1093       O  0.71874265  0.58308528  0.21690935    -0.83300
O1094       O  0.71847123  0.59130367  0.29507439    -0.78100
O1095       O  0.62596429  0.63393257  0.21871272    -0.79900
O1096       O  0.69946312  0.70615600  0.29166758    -0.82600
C1097       C  0.69730607  0.57099391  0.30529658     0.98100
C1098       C  0.69664336  0.56833191  0.20246551     1.05600
O1099       O  0.68412924  0.64124818  0.25156102    -1.11600
O1100       O  0.70954198  0.70679390  0.21422196    -0.74100
O1101       O  0.73795395  0.65734574  0.20931207    -0.77500
O1102       O  0.67213330  0.57157955  0.29121080    -0.78200
C1103       C  0.73038801  0.68924745  0.19965019     0.97000
O1104       O  0.73688412  0.66627832  0.28817283    -0.76200
O1105       O  0.64942815  0.68588337  0.20439373    -0.81400
C1106       C  0.62263467  0.66593177  0.29490682     0.99600
C1107       C  0.62749029  0.66436418  0.20208702     1.05600
O1108       O  0.62916079  0.63188181  0.29466876    -0.77000
C1109       C  0.72394281  0.69385083  0.30210114     1.03900
C1110       C  0.73036448  0.50114062  0.12558976    -0.01600
Fe1111     Fe  0.72526725  0.87409761  0.00210561     1.65800
Fe1112     Fe  0.67425519  0.80634509  0.99830380     1.73200
Fe1113     Fe  0.65194071  0.89560050  0.00267580     1.54400
O1114       O  0.67303710  0.92982966  0.03870753    -0.80800
O1115       O  0.64926053  0.81402369  0.45429824    -0.79100
O1116       O  0.71828905  0.90743699  0.04540288    -0.83300
O1117       O  0.71885392  0.91723022  0.46726296    -0.78100
O1118       O  0.62968989  0.87013657  0.04444369    -0.79900
O1119       O  0.70923790  0.79252453  0.46552076    -0.82600
C1120       C  0.69702622  0.93087329  0.45138634     0.98100
C1121       C  0.69760877  0.92910709  0.05424141     1.05600
O1122       O  0.68382985  0.85880955  0.00122806    -1.11600
O1123       O  0.69792986  0.79462332  0.04282549    -0.74100
O1124       O  0.73656820  0.83249382  0.03714622    -0.77500
O1125       O  0.67040446  0.92362930  0.45980746    -0.78200
C1126       C  0.72307542  0.80586511  0.05213048     0.97000
O1127       O  0.73675228  0.84268337  0.45848561    -0.76200
O1128       O  0.63688573  0.81183909  0.02863903    -0.81400
C1129       C  0.62707345  0.83510905  0.45231477     0.99600
C1130       C  0.62199603  0.83647422  0.04441329     1.05600
O1131       O  0.62559042  0.86565206  0.46870501    -0.77000
C1132       C  0.72952807  0.81030819  0.44985058     1.03900
C1133       C  0.47741552  0.72685417  0.10876063     0.87400
C1134       C  0.49546730  0.75369556  0.08533915    -0.52800
C1135       C  0.51552586  0.77445661  0.10335510     0.10300
C1136       C  0.51506591  0.76697342  0.14316009     0.21300
C1137       C  0.50080682  0.70403623  0.12759752    -0.53600
C1138       C  0.52086763  0.72495829  0.14526509     0.10400
C1139       C  0.46368990  0.75051133  0.13759448    -0.53100
C1140       C  0.48271521  0.77246450  0.15466548     0.11000
H1141       H  0.49333580  0.75477499  0.05688717     0.15500
H1142       H  0.53074304  0.78378573  0.15842917     0.01200
H1143       H  0.50313755  0.67451024  0.12497304     0.15800
H1144       H  0.43999761  0.75217169  0.14231129     0.15600
C1145       C  0.57867412  0.79599680  0.04142675    -0.12400
C1146       C  0.59326238  0.82452147  0.05909612     0.09700
C1147       C  0.57995411  0.84014344  0.08917049    -0.12400
C1148       C  0.55346873  0.82531753  0.10272535    -0.12400
C1149       C  0.53989203  0.79525293  0.08595417     0.09700
C1150       C  0.55242424  0.78157633  0.05462064    -0.12400
H1151       H  0.58794205  0.78414521  0.01745961     0.13700
H1152       H  0.59049426  0.86263353  0.10278906     0.13700
H1153       H  0.54402665  0.83672845  0.12674308     0.13700
H1154       H  0.54295073  0.75823261  0.04119587     0.13700
C1155       C  0.70306674  0.95458721  0.08263261    -0.12400
C1156       C  0.71249020  0.97572981  0.10443963    -0.13900
C1157       C  0.57430508  0.65839047  0.18692602    -0.12400
C1158       C  0.60130353  0.67711248  0.18276762     0.09700
C1159       C  0.60162216  0.71131637  0.16535877    -0.12400
C1160       C  0.57546808  0.72697762  0.15355318    -0.12400
C1161       C  0.54844604  0.70875469  0.15878796     0.09700
C1162       C  0.54820106  0.67403769  0.17506436    -0.12400
H1163       H  0.57309030  0.63231572  0.20071169     0.13700
H1164       H  0.62195628  0.72661221  0.16187870     0.13700
H1165       H  0.57645467  0.75330239  0.14021967     0.13700
H1166       H  0.52768425  0.65933637  0.17938490     0.13700
C1167       C  0.71235581  0.52371512  0.15020263    -0.12400
C1168       C  0.70256745  0.54335985  0.17348960    -0.13900
C1169       C  0.70301219  0.54539673  0.33347774    -0.12400
C1170       C  0.71300029  0.52402621  0.35466836    -0.13900
C1171       C  0.70339145  0.95547483  0.42231810    -0.12400
C1172       C  0.71332438  0.97524053  0.39923948    -0.13900
C1173       C  0.55631309  0.72623561  0.30949871    -0.12400
C1174       C  0.54035467  0.70758565  0.33581359     0.09700
C1175       C  0.55136455  0.67421822  0.34909465    -0.12400
C1176       C  0.57817436  0.65984817  0.33610165    -0.12400
C1177       C  0.59459129  0.67943913  0.31055629     0.09700
C1178       C  0.58305327  0.71251837  0.29721543    -0.12400
H1179       H  0.54876996  0.75241893  0.29942675     0.13700
H1180       H  0.53941017  0.65961733  0.36976255     0.13700
H1181       H  0.58628586  0.63406312  0.34641008     0.13700
H1182       H  0.59467240  0.72804289  0.27689300     0.13700
C1183       C  0.54766159  0.82556992  0.42548904    -0.12400
C1184       C  0.54760749  0.79062812  0.40971902     0.09700
C1185       C  0.57439976  0.77172471  0.40546347    -0.12400
C1186       C  0.60063633  0.78716124  0.41732775    -0.12400
C1187       C  0.60065698  0.82185937  0.43373728     0.09700
C1188       C  0.57385387  0.84101120  0.43735525    -0.12400
H1189       H  0.52732990  0.84073627  0.42923210     0.13700
H1190       H  0.57520697  0.74513703  0.39266393     0.13700
H1191       H  0.62078482  0.77144608  0.41445483     0.13700
H1192       H  0.57287898  0.86743043  0.45049943     0.13700
C1193       C  0.42968694  0.69248615  0.46775220    -0.12400
C1194       C  0.41389277  0.66841104  0.44602823     0.09700
C1195       C  0.42753339  0.65458787  0.41540425    -0.12400
C1196       C  0.45482652  0.66901400  0.40424223    -0.12400
C1197       C  0.46841044  0.69724633  0.42364893     0.09700
C1198       C  0.45691980  0.70641397  0.45688889    -0.12400
H1199       H  0.42000903  0.70257442  0.49215197     0.13700
H1200       H  0.41605643  0.63537020  0.39869846     0.13700
H1201       H  0.46315186  0.66209369  0.37811543     0.13700
H1202       H  0.46672460  0.72840385  0.47200869     0.13700
C1203       C  0.40507516  0.71535062  0.06295695    -0.12400
C1204       C  0.40001506  0.67737056  0.06445177     0.09700
C1205       C  0.42196704  0.65418666  0.07761232    -0.12400
C1206       C  0.44806021  0.66914747  0.09066012    -0.12400
C1207       C  0.45286772  0.70747109  0.08955863     0.09700
C1208       C  0.43138928  0.73000342  0.07434666    -0.12400
H1209       H  0.38908509  0.73381125  0.05164295     0.13700
H1210       H  0.41882616  0.62465015  0.07803066     0.13700
H1211       H  0.46377894  0.65059124  0.10207015     0.13700
H1212       H  0.43440778  0.75955730  0.07299761     0.13700
C1213       C  0.29953104  0.54591727  0.41494431    -0.12400
C1214       C  0.29023799  0.52494392  0.39306060    -0.13900
C1215       C  0.29827087  0.54469661  0.07468565    -0.12400
C1216       C  0.28894853  0.52511512  0.09801698    -0.13900
C1217       C  0.42963241  0.84663905  0.16647671    -0.12400
C1218       C  0.41498878  0.83232429  0.19631159     0.09700
C1219       C  0.42995361  0.80733615  0.21795581    -0.12400
C1220       C  0.45728933  0.79323683  0.20779288    -0.12400
C1221       C  0.46974367  0.80289869  0.17513250     0.09700
C1222       C  0.45698958  0.83188381  0.15589158    -0.12400
H1223       H  0.41890265  0.86659418  0.14985195     0.13700
H1224       H  0.41957681  0.79673263  0.24174632     0.13700
H1225       H  0.46639222  0.77069859  0.22280705     0.13700
H1226       H  0.46603123  0.83929600  0.13020641     0.13700
C1227       C  0.40523953  0.78673017  0.31172534    -0.12400
C1228       C  0.40039620  0.82471269  0.31371716     0.09700
C1229       C  0.42246116  0.84756883  0.32716627    -0.12400
C1230       C  0.44840599  0.83223402  0.34016960    -0.12400
C1231       C  0.45296833  0.79389326  0.33863899     0.09700
C1232       C  0.43146610  0.77175001  0.32291575    -0.12400
H1233       H  0.38916014  0.76854869  0.30012825     0.13700
H1234       H  0.41948708  0.87711418  0.32792391     0.13700
H1235       H  0.46419023  0.85050586  0.35190526     0.13700
H1236       H  0.43433013  0.74220657  0.32115693     0.13700
C1237       C  0.29959105  0.95821200  0.32375540    -0.12400
C1238       C  0.29022303  0.97755781  0.34729396    -0.13900
C1239       C  0.28976465  0.97734145  0.14295711    -0.12400
C1240       C  0.29990654  0.95632311  0.16420425    -0.13900
C1241       C  0.26670656  0.78810719  0.16649206    -0.12400
C1242       C  0.25193887  0.77123351  0.14564458    -0.13900
C1243       C  0.24712781  0.72614028  0.09896375    -0.12400
C1244       C  0.25909623  0.70874614  0.07554487    -0.13900
C1245       C  0.25188459  0.73138986  0.39569867    -0.12400
C1246       C  0.26637106  0.71432711  0.41669429    -0.13900
C1247       C  0.24751106  0.77673400  0.34897533    -0.12400
C1248       C  0.25951434  0.79410316  0.32548736    -0.13900
C1249       C  0.25196781  0.52156783  0.35044692    -0.12400
C1250       C  0.23774959  0.53851390  0.32926835    -0.13900
C1251       C  0.24346020  0.54394755  0.17031175    -0.12400
C1252       C  0.25532846  0.52617072  0.14725004    -0.13900
C1253       C  0.07568855  0.52235665  0.15465922    -0.12400
C1254       C  0.04891555  0.54143323  0.15788422     0.09700
C1255       C  0.04892992  0.57719134  0.17194697    -0.12400
C1256       C  0.07498434  0.59309062  0.18361560    -0.12400
C1257       C  0.10164204  0.57351514  0.18166783     0.09700
C1258       C  0.10178284  0.53822611  0.16640008    -0.12400
H1259       H  0.07655345  0.99516429  0.14303841     0.13700
H1260       H  0.02862949  0.59258228  0.17483798     0.13700
H1261       H  0.07393828  0.62007728  0.19564628     0.13700
H1262       H  0.12187779  0.52225812  0.16465630     0.13700
C1263       C  0.21310950  0.72716719  0.14864067    -0.12400
C1264       C  0.20309980  0.70758199  0.17182911    -0.13900
C1265       C  0.21322571  0.72750187  0.35315145    -0.12400
C1266       C  0.20343430  0.70630090  0.33164457    -0.13900
C1267       C  0.25091844  0.98086946  0.10097362    -0.12400
C1268       C  0.23676579  0.96424872  0.07950173    -0.13900
C1269       C  0.24411232  0.95824943  0.41961577    -0.12400
C1270       C  0.25614934  0.97576641  0.39640079    -0.13900
C1271       C  0.07994505  0.91053252  0.08903923    -0.12400
C1272       C  0.09264102  0.92628339  0.05859466     0.09700
C1273       C  0.07743116  0.95441888  0.04115370    -0.12400
C1274       C  0.05103500  0.96811990  0.05475597    -0.12400
C1275       C  0.03906594  0.95421209  0.08638296     0.09700
C1276       C  0.05341204  0.92469450  0.10305017    -0.12400
H1277       H  0.09098866  0.88839051  0.10256964     0.13700
H1278       H  0.08626570  0.96640776  0.01699340     0.13700
H1279       H  0.04098288  0.99110525  0.04140719     0.13700
H1280       H  0.04450969  0.91317914  0.12733910     0.13700
C1281       C  0.21330898  0.77563805  0.39854411    -0.12400
C1282       C  0.20339766  0.79514226  0.42182669    -0.13900
C1283       C  0.20312062  0.79656068  0.08202190    -0.12400
C1284       C  0.21302063  0.77539767  0.10345746    -0.13900
C1285       C  0.05340148  0.57649425  0.35334784    -0.12400
C1286       C  0.03929251  0.54708177  0.33612832     0.09700
C1287       C  0.05129724  0.53419968  0.30416974    -0.12400
C1288       C  0.07750254  0.54867686  0.29077920    -0.12400
C1289       C  0.09257703  0.57652554  0.30881134     0.09700
C1290       C  0.07981831  0.59140292  0.33958029    -0.12400
H1291       H  0.04443475  0.58732862  0.37785932     0.13700
H1292       H  0.04147043  0.01135139  0.29033359     0.13700
H1293       H  0.08638719  0.53737802  0.26636669     0.13700
H1294       H  0.09076198  0.61332771  0.35357311     0.13700
C1295       C  0.04841688  0.92386876  0.42237406    -0.12400
C1296       C  0.04849796  0.95923809  0.40742678     0.09700
C1297       C  0.07534029  0.97805046  0.40321352    -0.12400
C1298       C  0.10147862  0.96233693  0.41484834    -0.12400
C1299       C  0.10129211  0.92750320  0.43106115     0.09700
C1300       C  0.07451911  0.90814670  0.43403754    -0.12400
H1301       H  0.02802343  0.90870842  0.42589843     0.13700
H1302       H  0.07620553  0.00489495  0.39085872     0.13700
H1303       H  0.12166127  0.97810525  0.41229056     0.13700
H1304       H  0.07344800  0.88152435  0.44683819     0.13700
C1305       C  0.90329289  0.53433320  0.06703562    -0.12400
C1306       C  0.89933427  0.57254077  0.06673038     0.09700
C1307       C  0.92218363  0.59545700  0.07812606    -0.12400
C1308       C  0.94818406  0.58017230  0.09092581    -0.12400
C1309       C  0.95198728  0.54168143  0.09146445     0.09700
C1310       C  0.92948050  0.51924275  0.07827419    -0.12400
H1311       H  0.88655487  0.51594246  0.05717518     0.13700
H1312       H  0.91991151  0.62509220  0.07713740     0.13700
H1313       H  0.96470219  0.59873434  0.10064974     0.13700
H1314       H  0.93171315  0.48955957  0.07821546     0.13700
C1315       C  0.92995806  0.59583494  0.42047283    -0.12400
C1316       C  0.91476814  0.57968580  0.44904115     0.09700
C1317       C  0.92935482  0.55342736  0.46969720    -0.12400
C1318       C  0.95686586  0.53994637  0.45936940    -0.12400
C1319       C  0.96983308  0.55156987  0.42754111     0.09700
C1320       C  0.95749161  0.58178575  0.40976910    -0.12400
H1321       H  0.91957321  0.61689709  0.40479655     0.13700
H1322       H  0.91865616  0.54157331  0.49279851     0.13700
H1323       H  0.96574318  0.51650797  0.47329272     0.13700
H1324       H  0.96698550  0.59081377  0.38479599     0.13700
C1325       C  0.76644261  0.53650352  0.41794367    -0.12400
C1326       C  0.75191631  0.51962857  0.39682782    -0.13900
C1327       C  0.75853067  0.54253817  0.07704179    -0.12400
C1328       C  0.74646219  0.52520624  0.10049627    -0.13900
C1329       C  0.93012330  0.94387373  0.21999873    -0.12400
C1330       C  0.91503786  0.91916508  0.19818069     0.09700
C1331       C  0.92979170  0.90448615  0.16863349    -0.12400
C1332       C  0.95746446  0.91864228  0.15842088    -0.12400
C1333       C  0.97034314  0.94756449  0.17762839     0.09700
C1334       C  0.95777697  0.95740284  0.21018556    -0.12400
H1335       H  0.91966041  0.95465312  0.24364300     0.13700
H1336       H  0.91896558  0.88467263  0.15193247     0.13700
H1337       H  0.96662113  0.91101771  0.13286814     0.13700
H1338       H  0.96703818  0.97980975  0.22524815     0.13700
C1339       C  0.92172326  0.90476663  0.32848803    -0.12400
C1340       C  0.89960042  0.92761837  0.31531587     0.09700
C1341       C  0.90438015  0.96567116  0.31364089    -0.12400
C1342       C  0.93069898  0.98068324  0.32468015    -0.12400
C1343       C  0.95248736  0.95841832  0.33958630     0.09700
C1344       C  0.94781187  0.92005771  0.34110656    -0.12400
H1345       H  0.91875076  0.87520483  0.32917543     0.13700
H1346       H  0.88819627  0.98388973  0.30236684     0.13700
H1347       H  0.93351740  0.51026348  0.32322610     0.13700
H1348       H  0.96359781  0.90165717  0.35257528     0.13700
C1349       C  0.75914842  0.95758173  0.32599028    -0.12400
C1350       C  0.74728539  0.97494440  0.34953291    -0.13900
C1351       C  0.76609291  0.96273268  0.16747852    -0.12400
C1352       C  0.75121980  0.97973726  0.14684831    -0.13900
C1353       C  0.75231612  0.72924280  0.35196766    -0.12400
C1354       C  0.73820889  0.71259587  0.33047478    -0.13900
C1355       C  0.75683492  0.77472443  0.39808118    -0.12400
C1356       C  0.74477219  0.79246123  0.42107242    -0.13900
C1357       C  0.79047966  0.77331487  0.34862718    -0.12400
C1358       C  0.79958644  0.79285145  0.32504964    -0.13900
C1359       C  0.80058649  0.70435050  0.41556651    -0.12400
C1360       C  0.79098580  0.72554734  0.39406300    -0.13900
C1361       C  0.75186567  0.77040885  0.10162151    -0.12400
C1362       C  0.73748508  0.78698049  0.08033323    -0.13900
C1363       C  0.74572299  0.70687892  0.17081370    -0.12400
C1364       C  0.75735644  0.72492088  0.14770437    -0.13900
C1365       C  0.79091199  0.77468623  0.14322142    -0.12400
C1366       C  0.80053779  0.79571979  0.16481458    -0.13900
C1367       C  0.79958051  0.70724215  0.07471209    -0.12400
C1368       C  0.79045391  0.72699479  0.09800399    -0.13900
C1369       C  0.77285063  0.74930130  0.62265285    -0.01600
C1370       C  0.77289259  0.75071025  0.87322964    -0.01600
Fe1371     Fe  0.77818217  0.87507763  0.74586399     1.65800
Fe1372     Fe  0.82930926  0.94178251  0.74867522     1.73200
Fe1373     Fe  0.85129669  0.85244339  0.74595678     1.52000
O1374       O  0.83235297  0.82434209  0.78787623    -0.80800
O1375       O  0.86891396  0.93569587  0.72168549    -0.79100
O1376       O  0.78405319  0.83130195  0.78021981    -0.83300
O1377       O  0.78516722  0.84222773  0.70234841    -0.78100
O1378       O  0.87663128  0.88198963  0.78123426    -0.79900
O1379       O  0.80723281  0.95267420  0.70257157    -0.82600
C1380       C  0.80590989  0.82064010  0.69340651     0.98100
C1381       C  0.80576453  0.81734940  0.79607057     1.05600
O1382       O  0.81963815  0.88952576  0.74639198    -1.11600
O1383       O  0.79287582  0.95717457  0.77904097    -0.74100
O1384       O  0.76759915  0.90608920  0.79009089    -0.77500
O1385       O  0.83040621  0.81932470  0.70908541    -0.78200
C1386       C  0.77390021  0.93923177  0.79690122     0.97000
O1387       O  0.76716795  0.91767435  0.71133398    -0.76200
O1388       O  0.85154046  0.93319463  0.79428813    -0.81400
C1389       C  0.88412045  0.91022282  0.70752063     0.99600
C1390       C  0.87395649  0.91262432  0.79723542     1.05600
O1391       O  0.87460273  0.87750353  0.70520553    -0.77000
C1392       C  0.78114806  0.94312931  0.69496488     1.03900
Fe1393     Fe  0.77810183  0.62439709  0.99624853     1.65800
Fe1394     Fe  0.82908273  0.55770443  0.00000330     1.73200
Fe1395     Fe  0.85128289  0.64705371  0.99653661     1.54400
O1396       O  0.83052314  0.68016840  0.95952977    -0.80800
O1397       O  0.85128597  0.56672593  0.54556314    -0.79100
O1398       O  0.78523634  0.65732683  0.95272844    -0.83300
O1399       O  0.78401924  0.66820786  0.53045978    -0.78100
O1400       O  0.87463690  0.62171565  0.95609123    -0.79900
O1401       O  0.79265388  0.54252031  0.53051824    -0.82600
C1402       C  0.80573869  0.68237125  0.54616526     0.98100
C1403       C  0.80598713  0.67904797  0.94391565     1.05600
O1404       O  0.81952477  0.60995058  0.99712351    -1.11600
O1405       O  0.80707608  0.54631042  0.95395014    -0.74100
O1406       O  0.76718803  0.58171371  0.96171289    -0.77500
O1407       O  0.83233029  0.67534451  0.53815569    -0.78200
C1408       C  0.78118538  0.55604259  0.94576611     0.97000
O1409       O  0.76718825  0.59356076  0.54055084    -0.76200
O1410       O  0.86864561  0.56363133  0.97296541    -0.81400
C1411       C  0.87376418  0.58729171  0.54833333     0.99600
C1412       C  0.88398177  0.58895248  0.95863531     1.05600
O1413       O  0.87652003  0.61775621  0.53202261    -0.77000
C1414       C  0.77350667  0.56057486  0.54790119     1.03900
C1415       C  0.97710311  0.97797600  0.85851403     0.87400
C1416       C  0.99471225  0.00558127  0.83539943    -0.52800
C1417       C  0.01493690  0.52606505  0.85353222     0.10300
C1418       C  0.01491523  0.51759395  0.89320535     0.21300
C1419       C  0.00087678  0.95498618  0.87639423    -0.53600
C1420       C  0.02093798  0.97561973  0.89427290     0.10400
C1421       C  0.96355222  0.00081224  0.88803586    -0.53100
C1422       C  0.98267752  0.52235076  0.90544433     0.11000
H1423       H  0.99225555  0.50726702  0.80702498     0.15500
H1424       H  0.03062358  0.53418313  0.90863874     0.01200
H1425       H  0.00347056  0.92559435  0.87296193     0.15800
H1426       H  0.93990507  0.50204969  0.89322946     0.15600
Fe1427     Fe  0.22498005  0.87704309  0.50132816     1.65800
Fe1428     Fe  0.17377840  0.94449671  0.49718107     1.73200
Fe1429     Fe  0.15163465  0.85504571  0.50204644     1.54400
O1430       O  0.17039135  0.82636755  0.95974700    -0.80800
O1431       O  0.13616557  0.93924949  0.52749695    -0.79100
O1432       O  0.21882553  0.83402604  0.96633548    -0.83300
O1433       O  0.21813558  0.84343584  0.54443360    -0.78100
O1434       O  0.12564875  0.88427945  0.96719370    -0.79900
O1435       O  0.19744923  0.95663046  0.54162309    -0.82600
C1436       C  0.19736913  0.82205643  0.55377768     0.98100
C1437       C  0.19701686  0.81971608  0.95092595     1.05600
O1438       O  0.18346557  0.89205425  0.50044173    -1.11600
O1439       O  0.20869342  0.95836572  0.96423395    -0.74100
O1440       O  0.23650968  0.90853440  0.95778021    -0.77500
O1441       O  0.17255232  0.82154387  0.53879100    -0.78200
C1442       C  0.22905498  0.94066053  0.94872928     0.97000
O1443       O  0.23598622  0.91860480  0.53652918    -0.76200
O1444       O  0.14912332  0.93628263  0.95314284    -0.81400
C1445       C  0.12127409  0.91454913  0.54332647     0.99600
C1446       C  0.12727177  0.91471345  0.95058078     1.05600
O1447       O  0.12894250  0.88089501  0.54326178    -0.77000
C1448       C  0.22249117  0.94534138  0.55122345     1.03900
Fe1449     Fe  0.22492875  0.62573343  0.75113270     1.65800
Fe1450     Fe  0.17394378  0.55807953  0.74838164     1.73200
Fe1451     Fe  0.15164327  0.64736296  0.75205592     1.54400
O1452       O  0.17291408  0.68134294  0.78826477    -0.80800
O1453       O  0.14943806  0.56549209  0.70409613    -0.79100
O1454       O  0.21829090  0.65895475  0.79453435    -0.83300
O1455       O  0.21853705  0.66914987  0.71663740    -0.78100
O1456       O  0.12906572  0.62200358  0.79373855    -0.79900
O1457       O  0.20906998  0.54391459  0.71597777    -0.82600
C1458       C  0.19672686  0.68290451  0.70086045     0.98100
C1459       C  0.19765458  0.68066173  0.80350564     1.05600
O1460       O  0.18348153  0.61056411  0.75081348    -1.11600
O1461       O  0.19748341  0.54687282  0.79305488    -0.74100
O1462       O  0.23655316  0.58378243  0.78577528    -0.77500
O1463       O  0.17013077  0.67560264  0.70929350    -0.78200
C1464       C  0.22301460  0.55757533  0.80142286     0.97000
O1465       O  0.23562565  0.59456585  0.70716604    -0.76200
O1466       O  0.13627790  0.56360700  0.77838419    -0.81400
C1467       C  0.12747985  0.58678367  0.70125215     0.99600
C1468       C  0.12134795  0.58834851  0.79396100     1.05600
O1469       O  0.12565960  0.61736369  0.71760482    -0.77000
C1470       C  0.22866595  0.56190462  0.69928937     1.03900
C1471       C  0.23127048  0.75286435  0.87414482    -0.01600
C1472       C  0.23108650  0.74995598  0.62423478    -0.01600
C1473       C  0.97687712  0.52241024  0.61008782     0.87400
C1474       C  0.00098194  0.54546214  0.62728988    -0.52800
C1475       C  0.02131945  0.52487759  0.64478740     0.10300
C1476       C  0.01520532  0.98285258  0.64391040     0.21300
C1477       C  0.99404863  0.49477406  0.58664213    -0.53600
C1478       C  0.01460826  0.97442610  0.60428824     0.10400
C1479       C  0.96381825  0.49976912  0.64013384    -0.53100
C1480       C  0.98314415  0.97801132  0.65691052     0.11000
H1481       H  0.00338101  0.57489053  0.62393865     0.15500
H1482       H  0.03110749  0.96623709  0.65899914     0.01200
H1483       H  0.99127362  0.49322182  0.55830671     0.15800
H1484       H  0.94023819  0.49839384  0.64578873     0.15600
Fe1485     Fe  0.27840161  0.87605028  0.74456972     1.65800
Fe1486     Fe  0.32972723  0.80978884  0.74799786     1.73200
Fe1487     Fe  0.35147196  0.89929224  0.74451795     1.54400
O1488       O  0.33024461  0.93247482  0.70792835    -0.80800
O1489       O  0.35212495  0.81903440  0.79338605    -0.79100
O1490       O  0.28522723  0.90886977  0.70101814    -0.83300
O1491       O  0.28422113  0.91992368  0.77876246    -0.78100
O1492       O  0.37474088  0.87429356  0.70365792    -0.79900
O1493       O  0.29354183  0.79437125  0.77884427    -0.82600
C1494       C  0.30589318  0.93388233  0.79473031     0.98100
C1495       C  0.30571296  0.93098692  0.69232896     1.05600
O1496       O  0.31990140  0.86192792  0.74518741    -1.11600
O1497       O  0.30752325  0.79813693  0.70214369    -0.74100
O1498       O  0.26755177  0.83333105  0.71013269    -0.77500
O1499       O  0.33251602  0.92703510  0.78660728    -0.78200
C1500       C  0.28156129  0.80772816  0.69413190     0.97000
O1501       O  0.26776647  0.84517060  0.78890724    -0.76200
O1502       O  0.36906047  0.81613272  0.72054244    -0.81400
C1503       C  0.37462901  0.83959668  0.79585903     0.99600
C1504       C  0.38419188  0.84153763  0.70601424     1.05600
O1505       O  0.37722159  0.87007194  0.77955382    -0.77000
C1506       C  0.27431721  0.81225972  0.79627429     1.03900
Fe1507     Fe  0.27761120  0.62645038  0.99506858     1.65800
Fe1508     Fe  0.32932354  0.69249900  0.99824759     1.73200
Fe1509     Fe  0.35044936  0.60286054  0.99569960     1.54400
O1510       O  0.33140566  0.57595282  0.53809308    -0.80800
O1511       O  0.36847061  0.68555325  0.97065159    -0.79100
O1512       O  0.28319748  0.58262791  0.52937435    -0.83300
O1513       O  0.28449594  0.59351558  0.95155048    -0.78100
O1514       O  0.37647539  0.63225300  0.53031205    -0.79900
O1515       O  0.30710662  0.70398805  0.95236237    -0.82600
C1516       C  0.30487867  0.57109716  0.94337468     0.98100
C1517       C  0.30473532  0.56897537  0.54578129     1.05600
O1518       O  0.31914668  0.64041686  0.49589966    -1.11600
O1519       O  0.29326099  0.70817605  0.52908799    -0.74100
O1520       O  0.26710284  0.65753886  0.53924892    -0.77500
O1521       O  0.32909018  0.56930835  0.95959417    -0.78200
C1522       C  0.27386413  0.69043706  0.54649184     0.97000
O1523       O  0.26689756  0.66915891  0.96053380    -0.76200
O1524       O  0.35188756  0.68368218  0.54363279    -0.81400
C1525       C  0.38320916  0.65978928  0.95626080     0.99600
C1526       C  0.37416511  0.66284802  0.54638651     1.05600
O1527       O  0.37351969  0.62711322  0.95442627    -0.77000
C1528       C  0.28106874  0.69461438  0.94442054     1.03900
C1529       C  0.27237878  0.49993833  0.87179109    -0.01600
C1530       C  0.27140717  0.50233629  0.62234838    -0.01600
C1531       C  0.47713872  0.77402720  0.85801107     0.87400
C1532       C  0.50037242  0.79635021  0.87772749    -0.52800
C1533       C  0.52005645  0.77496290  0.89552206     0.10300
C1534       C  0.51403758  0.73305646  0.89261015     0.21300
C1535       C  0.49544846  0.74759322  0.83454249    -0.53600
C1536       C  0.51500292  0.72638660  0.85276714     0.10400
C1537       C  0.46287810  0.74992098  0.88622430    -0.53100
C1538       C  0.48157575  0.72763071  0.90335669     0.11000
H1539       H  0.50292790  0.82589049  0.87551150     0.15500
H1540       H  0.52937424  0.71554647  0.90768209     0.01200
H1541       H  0.49442756  0.74761252  0.80594595     0.15800
H1542       H  0.43913545  0.74838098  0.89058350     0.15600
C1543       C  0.73121196  0.49843111  0.87510063    -0.01600
Fe1544     Fe  0.72555682  0.62545489  0.75239660     1.65800
Fe1545     Fe  0.67507750  0.69388582  0.74782190     1.73200
Fe1546     Fe  0.65171726  0.60485646  0.75392656     1.54400
O1547       O  0.67014985  0.57486509  0.71210569    -0.80800
O1548       O  0.63821958  0.68978554  0.77896237    -0.79100
O1549       O  0.71874151  0.58308452  0.71691031    -0.83300
O1550       O  0.71846998  0.59130531  0.79507496    -0.78100
O1551       O  0.62596131  0.63392812  0.71871353    -0.79900
O1552       O  0.69946157  0.70615868  0.79166284    -0.82600
C1553       C  0.69730525  0.57099575  0.80529822     0.98100
C1554       C  0.69664235  0.56832951  0.70246758     1.05600
O1555       O  0.68412739  0.64124730  0.75156021    -1.11600
O1556       O  0.70953883  0.70679100  0.71421699    -0.74100
O1557       O  0.73795364  0.65734487  0.70931265    -0.77500
O1558       O  0.67213227  0.57158033  0.79121323    -0.78200
C1559       C  0.73038702  0.68924554  0.69964866     0.97000
O1560       O  0.73688174  0.66627946  0.78817233    -0.76200
O1561       O  0.64942437  0.68587841  0.70439103    -0.81400
C1562       C  0.62263362  0.66593193  0.79490583     0.99600
C1563       C  0.62748632  0.66435902  0.70208660     1.05600
O1564       O  0.62915989  0.63188203  0.79466931    -0.77000
C1565       C  0.72394100  0.69385377  0.80209801     1.03900
C1566       C  0.73036288  0.50113776  0.62559109    -0.01600
Fe1567     Fe  0.72526458  0.87409433  0.50210907     1.65800
Fe1568     Fe  0.67425423  0.80633930  0.49830932     1.73200
Fe1569     Fe  0.65193730  0.89559428  0.50268178     1.54400
O1570       O  0.67303294  0.92982319  0.53871411    -0.80800
O1571       O  0.64926350  0.81403069  0.95429121    -0.79100
O1572       O  0.71828663  0.90743469  0.54540567    -0.83300
O1573       O  0.71885829  0.91723478  0.96726089    -0.78100
O1574       O  0.62968732  0.87012868  0.54444944    -0.79900
O1575       O  0.70924003  0.79252890  0.96551680    -0.82600
C1576       C  0.69703125  0.93087707  0.95138249     0.98100
C1577       C  0.69760549  0.92910269  0.55424606     1.05600
O1578       O  0.68382747  0.85880443  0.50123304    -1.11600
O1579       O  0.69793102  0.79461792  0.54282945    -0.74100
O1580       O  0.73656717  0.83249198  0.53715037    -0.77500
O1581       O  0.67040918  0.92363297  0.95980148    -0.78200
C1582       C  0.72307617  0.80586154  0.55213402     0.97000
O1583       O  0.73675465  0.84268750  0.95848129    -0.76200
O1584       O  0.63688604  0.81183134  0.52864622    -0.81400
C1585       C  0.62707650  0.83511616  0.95230786     0.99600
C1586       C  0.62199521  0.83646569  0.54441984     1.05600
O1587       O  0.62559342  0.86565868  0.96869898    -0.77000
C1588       C  0.72953033  0.81031231  0.94984632     1.03900
C1589       C  0.47740963  0.72685189  0.60876536     0.87400
C1590       C  0.49546467  0.75368875  0.58534253    -0.52800
C1591       C  0.51552346  0.77444954  0.60335833     0.10300
C1592       C  0.51506150  0.76696991  0.64316380     0.21300
C1593       C  0.50079846  0.70403295  0.62760590    -0.53600
C1594       C  0.52086036  0.72495436  0.64527250     0.10400
C1595       C  0.46368446  0.75051387  0.63759590    -0.53100
C1596       C  0.48271084  0.77246609  0.65466638     0.11000
H1597       H  0.49333485  0.75476588  0.55689026     0.15500
H1598       H  0.53073924  0.78378197  0.65843224     0.01200
H1599       H  0.50312790  0.67450670  0.62498273     0.15800
H1600       H  0.43999214  0.75217765  0.64231098     0.15600
C1601       C  0.57867661  0.79598233  0.54143569    -0.12400
C1602       C  0.59326212  0.82451104  0.55910265     0.09700
C1603       C  0.57995095  0.84013658  0.58917343    -0.12400
C1604       C  0.55346504  0.82531129  0.60272706    -0.12400
C1605       C  0.53989067  0.79524380  0.58595795     0.09700
C1606       C  0.55242606  0.78156261  0.55462823    -0.12400
H1607       H  0.58794678  0.78412766  0.51747121     0.13700
H1608       H  0.59048902  0.86262962  0.60279004     0.13700
H1609       H  0.54402048  0.83672517  0.62674211     0.13700
H1610       H  0.54295416  0.75821635  0.54120569     0.13700
C1611       C  0.70306358  0.95458309  0.58263695    -0.12400
C1612       C  0.71248757  0.97572638  0.60444301    -0.13900
C1613       C  0.57429938  0.65838603  0.68693137    -0.12400
C1614       C  0.60129824  0.67710655  0.68276880     0.09700
C1615       C  0.60161640  0.71130904  0.66535756    -0.12400
C1616       C  0.57546179  0.72697075  0.65355413    -0.12400
C1617       C  0.54843937  0.70874973  0.65879328     0.09700
C1618       C  0.54819472  0.67403367  0.67507157    -0.12400
H1619       H  0.57308492  0.63231236  0.70071888     0.13700
H1620       H  0.62195075  0.72660372  0.66187409     0.13700
H1621       H  0.57644829  0.75329458  0.64021892     0.13700
H1622       H  0.52767771  0.65933353  0.67939509     0.13700
C1623       C  0.71235501  0.52371258  0.65020467    -0.12400
C1624       C  0.70256672  0.54335711  0.67349191    -0.13900
C1625       C  0.70301273  0.54539943  0.83347903    -0.12400
C1626       C  0.71300354  0.52402947  0.85466788    -0.13900
C1627       C  0.70339749  0.95547788  0.92231468    -0.12400
C1628       C  0.71333066  0.97524329  0.89923642    -0.13900
C1629       C  0.55630998  0.72623264  0.80949202    -0.12400
C1630       C  0.54035551  0.70758848  0.83581413     0.09700
C1631       C  0.55136860  0.67422534  0.84910139    -0.12400
C1632       C  0.57817779  0.65985426  0.83610786    -0.12400
C1633       C  0.59459060  0.67943972  0.81055506     0.09700
C1634       C  0.58304932  0.71251413  0.79720756    -0.12400
H1635       H  0.54876464  0.75241274  0.79941487     0.13700
H1636       H  0.53941731  0.65962872  0.86977454     0.13700
H1637       H  0.58629215  0.63407297  0.84642168     0.13700
H1638       H  0.59466540  0.72803390  0.77687931     0.13700
C1639       C  0.54766447  0.82557835  0.92548264    -0.12400
C1640       C  0.54760940  0.79063514  0.90971541     0.09700
C1641       C  0.57440142  0.77173114  0.90545980    -0.12400
C1642       C  0.60063848  0.78716791  0.91732236    -0.12400
C1643       C  0.60065996  0.82186694  0.93373012     0.09700
C1644       C  0.57385730  0.84101991  0.93734698    -0.12400
H1645       H  0.52733316  0.84074546  0.92922544     0.13700
H1646       H  0.57520804  0.74514262  0.89266193     0.13700
H1647       H  0.62078663  0.77145196  0.91444999     0.13700
H1648       H  0.57288307  0.86744016  0.95048940     0.13700
C1649       C  0.42969047  0.69248430  0.96775130    -0.12400
C1650       C  0.41389644  0.66841027  0.94602606     0.09700
C1651       C  0.42753705  0.65458941  0.91540108    -0.12400
C1652       C  0.45482989  0.66901706  0.90423960    -0.12400
C1653       C  0.46841333  0.69724877  0.92364772     0.09700
C1654       C  0.45692290  0.70641376  0.95688840    -0.12400
H1655       H  0.42001269  0.70257071  0.99215183     0.13700
H1656       H  0.41606029  0.63537256  0.89869428     0.13700
H1657       H  0.46315520  0.66209858  0.87811233     0.13700
H1658       H  0.46672737  0.72840291  0.97200938     0.13700
C1659       C  0.40507158  0.71535197  0.56295525    -0.12400
C1660       C  0.40000748  0.67737292  0.56445581     0.09700
C1661       C  0.42195562  0.65418801  0.57762346    -0.12400
C1662       C  0.44804923  0.66914704  0.59067180    -0.12400
C1663       C  0.45286118  0.70746964  0.58956372     0.09700
C1664       C  0.43138626  0.73000272  0.57434574    -0.12400
H1665       H  0.38908441  0.73381295  0.55163599     0.13700
H1666       H  0.41881141  0.62465212  0.57804683     0.13700
H1667       H  0.46376469  0.65059045  0.60208758     0.13700
H1668       H  0.43440796  0.75955590  0.57299211     0.13700
C1669       C  0.29953410  0.54591712  0.91494371    -0.12400
C1670       C  0.29023937  0.52494390  0.89306107    -0.13900
C1671       C  0.29826464  0.54469839  0.57468640    -0.12400
C1672       C  0.28894357  0.52511600  0.59801774    -0.13900
C1673       C  0.42963095  0.84664386  0.66647583    -0.12400
C1674       C  0.41498849  0.83233151  0.69631255     0.09700
C1675       C  0.42995421  0.80734552  0.71795808    -0.12400
C1676       C  0.45728908  0.79324448  0.70779424    -0.12400
C1677       C  0.46974152  0.80290270  0.67513196     0.09700
C1678       C  0.45698730  0.83188692  0.65588989    -0.12400
H1679       H  0.41890054  0.86659759  0.64985012     0.13700
H1680       H  0.41957831  0.79674424  0.74174998     0.13700
H1681       H  0.46639232  0.77070727  0.72280952     0.13700
H1682       H  0.46602774  0.83929650  0.63020344     0.13700
C1683       C  0.40523931  0.78673231  0.81172642    -0.12400
C1684       C  0.40039608  0.82471493  0.81371736     0.09700
C1685       C  0.42246119  0.84757134  0.82716552    -0.12400
C1686       C  0.44840616  0.83223693  0.84016873    -0.12400
C1687       C  0.45296848  0.79389612  0.83863910     0.09700
C1688       C  0.43146607  0.77175239  0.82291675    -0.12400
H1689       H  0.38915972  0.76855058  0.80013010     0.13700
H1690       H  0.41948718  0.87711674  0.82792252     0.13700
H1691       H  0.46419049  0.85050923  0.85190344     0.13700
H1692       H  0.43433012  0.74220895  0.82115856     0.13700
C1693       C  0.29958936  0.95821190  0.82375678    -0.12400
C1694       C  0.29022184  0.97755772  0.84729539    -0.13900
C1695       C  0.28976201  0.97734302  0.64295827    -0.12400
C1696       C  0.29990477  0.95632553  0.66420571    -0.13900
C1697       C  0.26670633  0.78810783  0.66649277    -0.12400
C1698       C  0.25193788  0.77123470  0.64564559    -0.13900
C1699       C  0.24712445  0.72614324  0.59896362    -0.12400
C1700       C  0.25909177  0.70875056  0.57554293    -0.13900
C1701       C  0.25188618  0.73139183  0.89570331    -0.12400
C1702       C  0.26637289  0.71432904  0.91669889    -0.13900
C1703       C  0.24751170  0.77673454  0.84897768    -0.12400
C1704       C  0.25951445  0.79410318  0.82548870    -0.13900
C1705       C  0.25196713  0.52156789  0.85044978    -0.12400
C1706       C  0.23774877  0.53851395  0.82927123    -0.13900
C1707       C  0.24345754  0.54394835  0.67031357    -0.12400
C1708       C  0.25532479  0.52617068  0.64725163    -0.13900
C1709       C  0.07568987  0.52236483  0.65465755    -0.12400
C1710       C  0.04891644  0.54144005  0.65788377     0.09700
C1711       C  0.04892939  0.57719678  0.67194967    -0.12400
C1712       C  0.07498312  0.59309598  0.68362042    -0.12400
C1713       C  0.10164138  0.57352174  0.68167108     0.09700
C1714       C  0.10178347  0.53823433  0.66640003    -0.12400
H1715       H  0.07655552  0.99517329  0.64303454     0.13700
H1716       H  0.02862837  0.59258648  0.67484139     0.13700
H1717       H  0.07393618  0.62008128  0.69565371     0.13700
H1718       H  0.12187894  0.52226745  0.66465486     0.13700
C1719       C  0.21310774  0.72716917  0.64864281    -0.12400
C1720       C  0.20309897  0.70758402  0.67183209    -0.13900
C1721       C  0.21322727  0.72750158  0.85315633    -0.12400
C1722       C  0.20343565  0.70630053  0.83164981    -0.13900
C1723       C  0.25091465  0.98086884  0.60097524    -0.12400
C1724       C  0.23676295  0.96424808  0.57950227    -0.13900
C1725       C  0.24411383  0.95824886  0.91961861    -0.12400
C1726       C  0.25615029  0.97576662  0.89640375    -0.13900
C1727       C  0.07994235  0.91053082  0.58903406    -0.12400
C1728       C  0.09264023  0.92628263  0.55859102     0.09700
C1729       C  0.07743315  0.95442176  0.54115180    -0.12400
C1730       C  0.05103832  0.96812563  0.55475471    -0.12400
C1731       C  0.03906757  0.95421684  0.58638029     0.09700
C1732       C  0.05341051  0.92469573  0.60304570    -0.12400
H1733       H  0.09098377  0.88838614  0.60256304     0.13700
H1734       H  0.08626899  0.96641160  0.51699268     0.13700
H1735       H  0.04098856  0.99111371  0.54140757     0.13700
H1736       H  0.04450664  0.91317997  0.62733368     0.13700
C1737       C  0.21330927  0.77563871  0.89854696    -0.12400
C1738       C  0.20339662  0.79514227  0.92182921    -0.13900
C1739       C  0.20312017  0.79656355  0.58202246    -0.12400
C1740       C  0.21301874  0.77540105  0.60345957    -0.13900
C1741       C  0.05340280  0.57649582  0.85335444    -0.12400
C1742       C  0.03929213  0.54708592  0.83613304     0.09700
C1743       C  0.05129540  0.53420598  0.80417285    -0.12400
C1744       C  0.07750090  0.54868277  0.79078242    -0.12400
C1745       C  0.09257693  0.57652884  0.80881625     0.09700
C1746       C  0.07981981  0.59140409  0.83958705    -0.12400
H1747       H  0.04443735  0.58732832  0.87786732     0.13700
H1748       H  0.04146700  0.01135946  0.79033488     0.13700
H1749       H  0.08638448  0.53738563  0.76636863     0.13700
H1750       H  0.09076485  0.61332671  0.85358133     0.13700
C1751       C  0.04842103  0.92386492  0.92236596    -0.12400
C1752       C  0.04850208  0.95923505  0.90742049     0.09700
C1753       C  0.07534421  0.97804797  0.90320834    -0.12400
C1754       C  0.10148224  0.96233495  0.91484463    -0.12400
C1755       C  0.10129536  0.92750144  0.93105787     0.09700
C1756       C  0.07452290  0.90814342  0.93403090    -0.12400
H1757       H  0.02802771  0.90870401  0.92588891     0.13700
H1758       H  0.07620929  0.00489288  0.89085442     0.13700
H1759       H  0.12166468  0.97810397  0.91228864     0.13700
H1760       H  0.07345169  0.88152073  0.94683095     0.13700
C1761       C  0.90329670  0.53433353  0.56703141    -0.12400
C1762       C  0.89933510  0.57254047  0.56672891     0.09700
C1763       C  0.92218261  0.59545902  0.57812582    -0.12400
C1764       C  0.94818433  0.58017685  0.59092437    -0.12400
C1765       C  0.95199035  0.54168650  0.59146039     0.09700
C1766       C  0.92948554  0.51924581  0.57826853    -0.12400
H1767       H  0.88656017  0.51594143  0.55716978     0.13700
H1768       H  0.91990799  0.62509401  0.57713911     0.13700
H1769       H  0.96470098  0.59874000  0.60065002     0.13700
H1770       H  0.93172047  0.48956288  0.57820810     0.13700
C1771       C  0.92995921  0.59583204  0.92047114    -0.12400
C1772       C  0.91476967  0.57968722  0.94904205     0.09700
C1773       C  0.92935638  0.55343087  0.96970053    -0.12400
C1774       C  0.95686719  0.53994817  0.95937382    -0.12400
C1775       C  0.96983464  0.55156792  0.92754441     0.09700
C1776       C  0.95749274  0.58178136  0.90976877    -0.12400
H1777       H  0.91957416  0.61689196  0.90479234     0.13700
H1778       H  0.91865789  0.54157982  0.99280337     0.13700
H1779       H  0.96574443  0.51651140  0.97329977     0.13700
H1780       H  0.96698640  0.59080610  0.88479444     0.13700
C1781       C  0.76644647  0.53650711  0.91794173    -0.12400
C1782       C  0.75192106  0.51963254  0.89682494    -0.13900
C1783       C  0.75852910  0.54253361  0.57704160    -0.12400
C1784       C  0.74646002  0.52520257  0.60049629    -0.13900
C1785       C  0.93012695  0.94387185  0.71999411    -0.12400
C1786       C  0.91503917  0.91916852  0.69817290     0.09700
C1787       C  0.92978997  0.90449528  0.66862103    -0.12400
C1788       C  0.95746272  0.91865133  0.65840859    -0.12400
C1789       C  0.97034406  0.94756858  0.67762035     0.09700
C1790       C  0.95778028  0.95740175  0.71018024    -0.12400
H1791       H  0.91966628  0.95464631  0.74364199     0.13700
H1792       H  0.91896164  0.88468642  0.65191714     0.13700
H1793       H  0.96661729  0.91103144  0.63285351     0.13700
H1794       H  0.96704345  0.97980501  0.72524591     0.13700
C1795       C  0.92172950  0.90476901  0.82847559    -0.12400
C1796       C  0.89960299  0.92762143  0.81531299     0.09700
C1797       C  0.90437825  0.96567554  0.81364893    -0.12400
C1798       C  0.93069629  0.98068819  0.82468985    -0.12400
C1799       C  0.95248832  0.95842177  0.83958668     0.09700
C1800       C  0.94781750  0.92006002  0.84109537    -0.12400
H1801       H  0.91876067  0.87520645  0.82915387     0.13700
H1802       H  0.88819145  0.98389524  0.80238241     0.13700
H1803       H  0.93351206  0.51026965  0.82324425     0.13700
H1804       H  0.96360691  0.90165809  0.85255524     0.13700
C1805       C  0.75915277  0.95758490  0.82598679    -0.12400
C1806       C  0.74729003  0.97494843  0.84952900    -0.13900
C1807       C  0.76609313  0.96273083  0.66747794    -0.12400
C1808       C  0.75121879  0.97973501  0.64684892    -0.13900
C1809       C  0.75231657  0.72924723  0.85196252    -0.12400
C1810       C  0.73820779  0.71260089  0.83047038    -0.13900
C1811       C  0.75683742  0.77472817  0.89807678    -0.12400
C1812       C  0.74477459  0.79246510  0.92106805    -0.13900
C1813       C  0.79048432  0.77331525  0.84862412    -0.12400
C1814       C  0.79959410  0.79285136  0.82504767    -0.13900
C1815       C  0.80058625  0.70435117  0.91556375    -0.12400
C1816       C  0.79098546  0.72554763  0.89405980    -0.13900
C1817       C  0.75186926  0.77040564  0.60162280    -0.12400
C1818       C  0.73748758  0.78697701  0.58033546    -0.13900
C1819       C  0.74572412  0.70687702  0.67081398    -0.12400
C1820       C  0.75735939  0.72491881  0.64770592    -0.13900
C1821       C  0.79091556  0.77468378  0.64322250    -0.12400
C1822       C  0.80054130  0.79571842  0.66481472    -0.13900
C1823       C  0.79958293  0.70723766  0.57471457    -0.12400
C1824       C  0.79045719  0.72699108  0.59800624    -0.13900
loop_ 
_geom_bond_atom_site_label_1 
_geom_bond_atom_site_label_2 
_geom_bond_distance 
_geom_bond_site_symmetry_2 
_ccdc_geom_bond_type 
C1          C449   1.470       .  S
C1          C452   1.468       .  S
C1          C453   1.468       .  S
C1          C456   1.464       .  S
C2          C441   1.469       .  S
C2          C443   1.469       .  S
C2          C445   1.467       .  S
C2          C448   1.470       .  S
Fe3          O19   2.094       .  S
Fe3           O9   2.057       .  S
Fe3          O16   2.070       .  S
Fe3           O8   2.076       .  S
Fe3          O14   1.954       .  S
Fe4           O7   2.064       .  S
Fe4          O11   2.070       .  S
Fe4          O15   2.075       .  S
Fe4          O20   2.043       .  S
Fe4          O14   1.951       .  S
Fe5          O23   2.066       .  S
Fe5          O10   2.079       .  S
Fe5          O17   2.086       .  S
Fe5           O6   2.062       .  S
Fe5          O14   1.972       .  S
O6           C13   1.266       .  A
O7           C21   1.269       .  A
O8           C13   1.270       .  A
O9           C12   1.268       .  A
O10          C22   1.273       .  A
O11          C24   1.272       .  A
C12          O17   1.272       .  A
C12         C454   1.437       .  S
C13         C446   1.437       .  S
O15          C18   1.266       .  A
O16          C18   1.265       .  A
C18         C437   1.444       .  S
O19          C24   1.275       .  A
O20          C22   1.270       .  A
C21          O23   1.268       .  A
C21         C418   1.477       .  S
C22         C428   1.467       .  S
C24         C439   1.445       .  S
Fe25         O38   2.096       .  S
Fe25         O30   2.058       .  S
Fe25        O497   2.071       .  S
Fe25        O487   2.075       .  S
Fe25         O36   1.954       .  S
Fe26         O37   2.070       .  S
Fe26         O42   2.062       .  S
Fe26        O485   2.043       .  S
Fe26        O489   2.074       .  S
Fe26         O36   1.952       .  S
Fe27         O32   2.066       .  S
Fe27         O28   2.087       .  S
Fe27        O501   2.078       .  S
Fe27        O495   2.059       .  S
Fe27         O36   1.973       .  S
O28          C35   1.272       .  A
O29        Fe482   2.043   1_554  S
O29          C43   1.270       .  A
O30          C35   1.268       .  A
O31        Fe481   2.075   1_554  S
O31          C34   1.270       .  A
O32          C44   1.269       .  A
O33        Fe482   2.074   1_554  S
O33          C46   1.265       .  A
C34          O39   1.266       .  A
C34         C455   1.434       .  S
C35         C447   1.439       .  S
O37          C40   1.272       .  A
O38          C40   1.276       .  A
O39        Fe483   2.059   1_554  S
C40         C413   1.446       .  S
O41        Fe481   2.071   1_554  S
O41          C46   1.265       .  A
O42          C44   1.269       .  A
C43          O45   1.273       .  A
C43         C394   1.468       .  S
C44         C404   1.477       .  S
O45        Fe483   2.078   1_554  S
C46         C415   1.443       .  S
C47          C48   1.544       .  S
C47          C53   1.516       .  S
C47          C51   1.534   1_655  S
C47         C431   1.516       .  S
C48         H967   1.086       .  S
C48         C961   1.376   1_655  D
C49          C50   1.535       .  S
C49         C960   1.376   1_455  D
C49         C374   1.487       .  S
C50          C54   1.537   1_455  S
C50         C964   1.550   1_545  S
C50          H56   1.109       .  S
C51          H57   1.082       .  S
C51          C52   1.369       .  D
C52         C962   1.550       .  S
C52         C384   1.482       .  S
C53         H970   1.089       .  S
C53         C966   1.350       .  D
C54         C965   1.350       .  D
C54         C407   1.468       .  S
H55         C960   1.086       .  S
H58         C965   1.089       .  S
Fe59         O75   2.083       .  S
Fe59         O65   2.058       .  S
Fe59        O528   2.067   1_554  S
Fe59        O520   2.073   1_554  S
Fe59         O70   1.964       .  S
Fe60         O63   2.049   1_556  S
Fe60         O67   2.064   1_556  S
Fe60        O527   2.062       .  S
Fe60        O532   2.050       .  S
Fe60         O70   1.961   1_556  S
Fe61         O79   2.081       .  S
Fe61         O73   2.092       .  S
Fe61        O522   2.081   1_554  S
Fe61        O518   2.083   1_554  S
Fe61         O70   1.973       .  S
O62        Fe517   2.083       .  S
O62          C69   1.272       .  A
O63          C77   1.267       .  A
O64        Fe515   2.073       .  S
O64          C69   1.270       .  A
O65          C68   1.266       .  A
O66        Fe517   2.081       .  S
O66          C78   1.274       .  A
O67          C80   1.269       .  A
C68          O73   1.272       .  A
C68         C371   1.443       .  S
C69         C370   1.445       .  S
O71        Fe516   2.062       .  S
O71          C74   1.263       .  A
O72        Fe515   2.067       .  S
O72          C74   1.265       .  A
C74         C357   1.437       .  S
O75          C80   1.273       .  A
O76        Fe516   2.050       .  S
O76          C78   1.269       .  A
C77          O79   1.272       .  A
C77         C360   1.477       .  S
C78         C387   1.480       .  S
C80         C356   1.438       .  S
Fe81         O97   2.067       .  S
Fe81         O87   2.073       .  S
Fe81         O94   2.087       .  S
Fe81         O86   2.060       .  S
Fe81         O92   1.961       .  S
Fe82         O85   2.050       .  S
Fe82         O89   2.061       .  S
Fe82         O93   2.061       .  S
Fe82         O98   2.046       .  S
Fe82         O92   1.958       .  S
Fe83        O101   2.084       .  S
Fe83         O88   2.081       .  S
Fe83         O95   2.081       .  S
Fe83         O84   2.096       .  S
Fe83         O92   1.971       .  S
O84          C91   1.273       .  A
O85          C99   1.269       .  A
O86          C91   1.267       .  A
O87          C90   1.270       .  A
O88         C100   1.272       .  A
O89         C102   1.263       .  A
C90          O95   1.271       .  A
C90         C352   1.444       .  S
C91         C354   1.445       .  S
O93          C96   1.268       .  A
O94          C96   1.273       .  A
C96         C338   1.439       .  S
O97         C102   1.265       .  A
O98         C100   1.266       .  A
C99         O101   1.275       .  A
C99         C345   1.481       .  S
C100        C377   1.476       .  S
C102        C339   1.435       .  S
C103        C333   1.478       .  S
C103        C335   1.476       .  S
C103        C353   1.476       .  S
C103        C369   1.477       .  S
C104        C330   1.477       .  S
C104        C331   1.474       .  S
C104        C351   1.475       .  S
C104        C372   1.475       .  S
C105        C106   1.533   1_655  S
C105        C111   1.516   1_545  S
C105        C109   1.544   1_545  S
C105        C397   1.516       .  S
C106        H113   1.082       .  S
C106        C107   1.370       .  D
C107       C1020   1.552   1_545  S
C107        C342   1.484       .  S
C108        C112   1.538   1_455  S
C108        C110   1.534       .  S
C108       C1019   1.552       .  S
C108        H114   1.109       .  S
C109        H115   1.086       .  S
C109       C1022   1.375   1_655  D
C110       C1021   1.375   1_455  D
C110        C363   1.486       .  S
C111        H116   1.089       .  S
C111       C1024   1.350       .  D
C112       C1023   1.350       .  D
C112        C421   1.469       .  S
Fe117       O133   2.070       .  S
Fe117       O123   2.075       .  S
Fe117       O130   2.094       .  S
Fe117       O122   2.055       .  S
Fe117       O128   1.954       .  S
Fe118       O121   2.044       .  S
Fe118       O125   2.075       .  S
Fe118       O129   2.070       .  S
Fe118       O134   2.063       .  S
Fe118       O128   1.950       .  S
Fe119       O137   2.079       .  S
Fe119       O124   2.070       .  S
Fe119       O131   2.063       .  S
Fe119       O120   2.088       .  S
Fe119       O128   1.973       .  S
O120        C127   1.272       .  A
O121        C135   1.270       .  A
O122        C127   1.267       .  A
O123        C126   1.271       .  A
O124        C136   1.270       .  A
O125        C138   1.266       .  A
C126        O131   1.267       .  A
C126        C325   1.437       .  S
C127        C328   1.437       .  S
O129        C132   1.272       .  A
O130        C132   1.275       .  A
C132        C329   1.445       .  S
O133        C138   1.265       .  A
O134        C136   1.269       .  A
C135        O137   1.272       .  A
C135        C316   1.467       .  S
C136        C306   1.478       .  S
C138        C336   1.444       .  S
Fe139       O155   2.094       .  S
Fe139       O145   2.059       .  S
Fe139       O608   2.070       .  S
Fe139       O600   2.075       .  S
Fe139       O606   1.954       .  S
Fe140       O143   2.061       .  S
Fe140       O147   2.070       .  S
Fe140       O607   2.075       .  S
Fe140       O612   2.045       .  S
Fe140       O606   1.950       .  S
Fe141       O159   2.063       .  S
Fe141       O153   2.086       .  S
Fe141       O602   2.078       .  S
Fe141       O598   2.057       .  S
Fe141       O606   1.972       .  S
O142       Fe597   2.057   1_554  S
O142        C149   1.266       .  A
O143        C157   1.269       .  A
O144       Fe595   2.075   1_554  S
O144        C149   1.270       .  A
O145        C148   1.268       .  A
O146       Fe597   2.078   1_554  S
O146        C158   1.272       .  A
O147        C160   1.272       .  A
C148        O153   1.272       .  A
C148        C301   1.439       .  S
C149        C303   1.432       .  S
O150       Fe595   1.954       .  S
O150       Fe596   1.950       .  S
O150       Fe597   1.972       .  S
O151       Fe596   2.075   1_554  S
O151        C154   1.266       .  A
O152       Fe595   2.070   1_554  S
O152        C154   1.266       .  A
C154        C332   1.442       .  S
O155        C160   1.275       .  A
O156       Fe596   2.045   1_554  S
O156        C158   1.270       .  A
C157        O159   1.268       .  A
C157        C282   1.473       .  S
C158        C292   1.468       .  S
C160        C334   1.446       .  S
C161        C302   1.469   1_565  S
C161        C337   1.470   1_565  S
C161       C1238   1.468       .  S
C161       C1270   1.469       .  S
C162        C304   1.463       .  S
C162        C340   1.467       .  S
C162       C1239   1.468   1_545  S
C162       C1267   1.470   1_545  S
C163        C164   1.536       .  S
C163        C169   1.517       .  S
C163        C167   1.543       .  S
C163        C319   1.516       .  S
C164        H171   1.083       .  S
C164        C165   1.372       .  D
C165        C166   1.551       .  S
C165        C272   1.485       .  S
C166        C170   1.534       .  S
C166        C168   1.530       .  S
C166        H172   1.110       .  S
C167        H173   1.086       .  S
C167        C168   1.373       .  D
C168        C262   1.476       .  S
C169        H174   1.089       .  S
C169        C170   1.350       .  D
C170        C285   1.465       .  S
C175        C258   1.475   1_565  S
C175        C414   1.478   1_565  S
C175       C1172   1.475       .  S
C175       C1350   1.476       .  S
Fe176       O192   2.082       .  S
Fe176       O182   2.059       .  S
Fe176       O189   2.071       .  S
Fe176       O181   2.072       .  S
Fe176       O187   1.968       .  S
Fe177       O180   2.035       .  S
Fe177       O184   2.064       .  S
Fe177       O188   2.053       .  S
Fe177       O193   2.056       .  S
Fe177       O187   1.963       .  S
Fe178       O196   2.084       .  S
Fe178       O183   2.080       .  S
Fe178       O190   2.091       .  S
Fe178       O179   2.088       .  S
Fe178       O187   1.978       .  S
O179        C186   1.273       .  A
O180        C194   1.265       .  A
O181        C186   1.271       .  A
O182        C185   1.266       .  A
O183        C195   1.274       .  A
O184        C197   1.269       .  A
C185        O190   1.271       .  A
C185        C257   1.444       .  S
C186        C256   1.447       .  S
O188        C191   1.261       .  A
O189        C191   1.265       .  A
C191        C451   1.435       .  S
O192        C197   1.272       .  A
O193        C195   1.270       .  A
C194        O196   1.273       .  A
C194        C265   1.479       .  S
C195        C246   1.483       .  S
C197        C442   1.438       .  S
C198        C255   1.479       .  S
C198        C416   1.475       .  S
C198       C1156   1.476   1_545  S
C198       C1352   1.477   1_545  S
Fe199       O212   2.083       .  S
Fe199       O204   2.061       .  S
Fe199       O671   2.070   1_554  S
Fe199       O661   2.074   1_554  S
Fe199       O210   1.962       .  S
Fe200       O211   2.063   1_556  S
Fe200       O216   2.042   1_556  S
Fe200       O659   2.055       .  S
Fe200       O663   2.061       .  S
Fe200       O210   1.959   1_556  S
Fe201       O206   2.078       .  S
Fe201       O202   2.093       .  S
Fe201       O675   2.082   1_554  S
Fe201       O669   2.080   1_554  S
Fe201       O210   1.972       .  S
O202        C209   1.272       .  A
O203       Fe656   2.055       .  S
O203        C217   1.270       .  A
O204        C209   1.267       .  A
O205       Fe655   2.074       .  S
O205        C208   1.271       .  A
O206        C218   1.272       .  A
O207       Fe656   2.061       .  S
O207        C220   1.264       .  A
C208        O213   1.272       .  A
C208        C259   1.443       .  S
C209        C243   1.445       .  S
O211        C214   1.269       .  A
O212        C214   1.272       .  A
O213       Fe657   2.080       .  S
C214        C450   1.439       .  S
O215       Fe655   2.069       .  S
O215        C220   1.266       .  A
O216        C218   1.266       .  A
C217        O219   1.274       .  A
C217        C275   1.483       .  S
C218        C234   1.474       .  S
O219       Fe657   2.082       .  S
C220        C444   1.437       .  S
C221        C222   1.543       .  S
C221        C227   1.517       .  S
C221        C225   1.535       .  S
C221        C295   1.516       .  S
C222        H229   1.086       .  S
C222        C223   1.374       .  D
C223        C224   1.533       .  S
C223        C237   1.483       .  S
C224        C228   1.538       .  S
C224        C226   1.552       .  S
C224        H230   1.109       .  S
C225        H231   1.083       .  S
C225        C226   1.371       .  D
C226        C249   1.485       .  S
C227        H232   1.089       .  S
C227        C228   1.350       .  D
C228        C309   1.469       .  S
C233        C234   1.407       .  A
C233        C238   1.386       .  A
C233        H239   1.084       .  S
C234        C235   1.401       .  A
C235        C236   1.405       .  A
C235        H240   1.083       .  S
C236        C237   1.411       .  A
C236        H241   1.082       .  S
C237        C238   1.399       .  A
C238        H242   1.082       .  S
C243        C244   1.213       .  T
C244       C1110   1.476       .  S
C245        C246   1.407       .  A
C245        C250   1.397       .  A
C245        H251   1.083       .  S
C246        C247   1.407       .  A
C247        C248   1.399       .  A
C247        H252   1.083       .  S
C248        C249   1.404       .  A
C248        H253   1.082       .  S
C249        C250   1.404       .  A
C250        H254   1.083       .  S
C255        C256   1.214       .  T
C257        C258   1.212       .  T
C259        C260   1.212       .  T
C260       C1087   1.475       .  S
C261        C262   1.397       .  A
C261        C266   1.386       .  A
C261        H267   1.083       .  S
C262        C263   1.409       .  A
C263        C264   1.406       .  A
C263        H268   1.083       .  S
C264        C265   1.404       .  A
C264        H269   1.083       .  S
C265        C266   1.409       .  A
C266        H270   1.083       .  S
C271        C272   1.404       .  A
C271        C276   1.397       .  A
C271        H277   1.083       .  S
C272        C273   1.405       .  A
C273        C274   1.398       .  A
C273        H278   1.082       .  S
C274        C275   1.406       .  A
C274        H279   1.083       .  S
C275        C276   1.407       .  A
C276        H280   1.083       .  S
C281        C282   1.407       .  A
C281        C286   1.391       .  A
C281        H287   1.081       .  S
C282        C283   1.400       .  A
C283        C284   1.403       .  A
C283        H288   1.083       .  S
C284        C285   1.411       .  A
C284        H289   1.084       .  S
C285        C286   1.396       .  A
C286        H290   1.084       .  S
C291        C292   1.400       .  A
C291        C296   1.384       .  A
C291        H297   1.084       .  S
C292        C293   1.405       .  A
C293        C294   1.402       .  A
C293        H298   1.083       .  S
C294        C295   1.410       .  A
C294        H299   1.079       .  S
C295        C296   1.406       .  A
C296        H300   1.084       .  S
C301        C302   1.209       .  T
C303        C304   1.205       .  T
C305        C306   1.401       .  A
C305        C310   1.405       .  A
C305        H311   1.083       .  S
C306        C307   1.408       .  A
C307        C308   1.391       .  A
C307        H312   1.080       .  S
C308        C309   1.396       .  A
C308        H313   1.084       .  S
C309        C310   1.412       .  A
C310        H314   1.083       .  S
C315        C316   1.400       .  A
C315        C320   1.384       .  A
C315        H321   1.084       .  S
C316        C317   1.404       .  A
C317        C318   1.402       .  A
C317        H322   1.083       .  S
C318        C319   1.410       .  A
C318        H323   1.079       .  S
C319        C320   1.406       .  A
C320        H324   1.084       .  S
C325        C326   1.208       .  T
C326       C1073   1.468       .  S
C327       C1074   1.468       .  S
C327        C328   1.208       .  T
C329        C330   1.213       .  T
C331        C332   1.211       .  T
C333        C334   1.213       .  T
C335        C336   1.212       .  T
C337        C338   1.209       .  T
C339        C340   1.207       .  T
C341        C342   1.404       .  A
C341        C346   1.398       .  A
C341       H1259   1.082   1_545  S
C342        C343   1.405       .  A
C343        C344   1.396       .  A
C343        H348   1.083       .  S
C344        C345   1.406       .  A
C344        H349   1.083       .  S
C345        C346   1.407       .  A
C346        H350   1.083       .  S
H347       C1253   1.082       .  S
C351        C352   1.212       .  T
C353        C354   1.213       .  T
C355       C1074   1.470       .  S
C355        C356   1.208       .  T
C357        C358   1.208       .  T
C358       C1073   1.469       .  S
C359        C360   1.402       .  A
C359        C364   1.406       .  A
C359        H365   1.083       .  S
C360        C361   1.407       .  A
C361        C362   1.389       .  A
C361        H366   1.084       .  S
C362        C363   1.401       .  A
C362        H367   1.082       .  S
C363        C364   1.411       .  A
C364        H368   1.082       .  S
C369        C370   1.213       .  T
C371        C372   1.212       .  T
C373        C374   1.412       .  A
C373        C378   1.407       .  A
C373        H379   1.082       .  S
C374        C375   1.400       .  A
C375        C376   1.388       .  A
C375       H1292   1.082       .  S
C376        C377   1.406       .  A
C376        H381   1.084       .  S
C377        C378   1.402       .  A
C378        H382   1.083       .  S
H380       C1287   1.082       .  S
C383        C384   1.404       .  A
C383        C388   1.396       .  A
C383        H389   1.083       .  S
C384        C385   1.403       .  A
C385        C386   1.397       .  A
C385        H390   1.082       .  S
C386        C387   1.407       .  A
C386        H391   1.083       .  S
C387        C388   1.406       .  A
C388        H392   1.083       .  S
C393        C394   1.400       .  A
C393        C398   1.385       .  A
C393        H399   1.084       .  S
C394        C395   1.404       .  A
C395        C396   1.400       .  A
C395        H400   1.083       .  S
C396        C397   1.410       .  A
C396        H401   1.078       .  S
C397        C398   1.406       .  A
C398        H402   1.084   1_545  S
C403        C404   1.401       .  A
C403        C408   1.404       .  A
C403        H409   1.083       .  S
C404        C405   1.408       .  A
C405        C406   1.392       .  A
C405        H410   1.082       .  S
C406        C407   1.398       .  A
C406        H411   1.084       .  S
C407        C408   1.410       .  A
C408        H412   1.083       .  S
C413        C414   1.213       .  T
C415        C416   1.211       .  T
C417        C418   1.407       .  A
C417        C422   1.392       .  A
C417        H423   1.081       .  S
C418        C419   1.401       .  A
C419        C420   1.405       .  A
C419        H424   1.083       .  S
C420        C421   1.412       .  A
C420        H425   1.083       .  S
C421        C422   1.397       .  A
C422        H426   1.084       .  S
C427        C428   1.403       .  A
C427        C432   1.401       .  A
C427        H433   1.083       .  S
C428        C429   1.401       .  A
C429        C430   1.385       .  A
C429        H434   1.084       .  S
C430        C431   1.406       .  A
C430       H1347   1.083       .  S
C431        C432   1.411       .  A
C432        H436   1.078       .  S
H435       C1342   1.083   1_545  S
C437        C438   1.212       .  T
C438       C1087   1.476       .  S
C439        C440   1.213       .  T
C440       C1110   1.477       .  S
C441        C442   1.208       .  T
C443        C444   1.208       .  T
C445        C446   1.208       .  T
C447        C448   1.209       .  T
C449        C450   1.209       .  T
C451        C452   1.207       .  T
C453        C454   1.208       .  T
C455        C456   1.206       .  T
C457        C905   1.470       .  S
C457        C908   1.468       .  S
C457        C909   1.468       .  S
C457        C912   1.464       .  S
C458        C897   1.469       .  S
C458        C899   1.469       .  S
C458        C901   1.467       .  S
C458        C904   1.470       .  S
Fe459       O475   2.094       .  S
Fe459       O465   2.057       .  S
Fe459       O472   2.071       .  S
Fe459       O464   2.076       .  S
Fe459       O470   1.954       .  S
Fe460       O463   2.064       .  S
Fe460       O467   2.070       .  S
Fe460       O471   2.075       .  S
Fe460       O476   2.043       .  S
Fe460       O470   1.951       .  S
Fe461       O479   2.066       .  S
Fe461       O466   2.079       .  S
Fe461       O473   2.086       .  S
Fe461       O462   2.062       .  S
Fe461       O470   1.972       .  S
O462        C469   1.266       .  A
O463        C477   1.269       .  A
O464        C469   1.270       .  A
O465        C468   1.268       .  A
O466        C478   1.273       .  A
O467        C480   1.272       .  A
C468        O473   1.272       .  A
C468        C910   1.437       .  S
C469        C902   1.437       .  S
O471        C474   1.266       .  A
O472        C474   1.265       .  A
C474        C893   1.444       .  S
O475        C480   1.275       .  A
O476        C478   1.270       .  A
C477        O479   1.268       .  A
C477        C874   1.477       .  S
C478        C884   1.467       .  S
C480        C895   1.445       .  S
Fe481       O494   2.096       .  S
Fe481       O486   2.058       .  S
Fe481       O492   1.954       .  S
Fe482       O493   2.070       .  S
Fe482       O498   2.062       .  S
Fe482       O492   1.952       .  S
Fe483       O488   2.066       .  S
Fe483       O484   2.087       .  S
Fe483       O492   1.973       .  S
O484        C491   1.272       .  A
O485        C499   1.270       .  A
O486        C491   1.268       .  A
O487        C490   1.270       .  A
O488        C500   1.269       .  A
O489        C502   1.265       .  A
C490        O495   1.266       .  A
C490        C911   1.434       .  S
C491        C903   1.439       .  S
O493        C496   1.272       .  A
O494        C496   1.276       .  A
C496        C869   1.446       .  S
O497        C502   1.265       .  A
O498        C500   1.269       .  A
C499        O501   1.273       .  A
C499        C850   1.468       .  S
C500        C860   1.477       .  S
C502        C871   1.443       .  S
C503        C504   1.544       .  S
C503        C509   1.516       .  S
C503        C507   1.534   1_655  S
C503        C887   1.516       .  S
C504       H1423   1.086       .  S
C504       C1417   1.376   1_655  D
C505        C506   1.535       .  S
C505       C1416   1.376   1_455  D
C505        C830   1.487       .  S
C506        C510   1.537   1_455  S
C506       C1420   1.550   1_545  S
C506        H512   1.109       .  S
C507        H513   1.082       .  S
C507        C508   1.369       .  D
C508       C1418   1.550       .  S
C508        C840   1.482       .  S
C509       H1426   1.089       .  S
C509       C1422   1.350       .  D
C510       C1421   1.350       .  D
C510        C863   1.468       .  S
H511       C1416   1.086       .  S
H514       C1421   1.089       .  S
Fe515       O531   2.083       .  S
Fe515       O521   2.058       .  S
Fe515       O526   1.964       .  S
Fe516       O519   2.049       .  S
Fe516       O523   2.064       .  S
Fe516       O526   1.961       .  S
Fe517       O535   2.081       .  S
Fe517       O529   2.092       .  S
Fe517       O526   1.973       .  S
O518        C525   1.272       .  A
O519        C533   1.267       .  A
O520        C525   1.270       .  A
O521        C524   1.266       .  A
O522        C534   1.274       .  A
O523        C536   1.269       .  A
C524        O529   1.272       .  A
C524        C827   1.443       .  S
C525        C826   1.445       .  S
O527        C530   1.263       .  A
O528        C530   1.265       .  A
C530        C813   1.437       .  S
O531        C536   1.273       .  A
O532        C534   1.269       .  A
C533        O535   1.272       .  A
C533        C816   1.477       .  S
C534        C843   1.480       .  S
C536        C812   1.438       .  S
Fe537       O553   2.067       .  S
Fe537       O543   2.073       .  S
Fe537       O550   2.087       .  S
Fe537       O542   2.060       .  S
Fe537       O548   1.961       .  S
Fe538       O541   2.050       .  S
Fe538       O545   2.061       .  S
Fe538       O549   2.061       .  S
Fe538       O554   2.046       .  S
Fe538       O548   1.958       .  S
Fe539       O557   2.084       .  S
Fe539       O544   2.081       .  S
Fe539       O551   2.081       .  S
Fe539       O540   2.096       .  S
Fe539       O548   1.971       .  S
O540        C547   1.273       .  A
O541        C555   1.269       .  A
O542        C547   1.267       .  A
O543        C546   1.270       .  A
O544        C556   1.272       .  A
O545        C558   1.263       .  A
C546        O551   1.271       .  A
C546        C808   1.444       .  S
C547        C810   1.445       .  S
O549        C552   1.269       .  A
O550        C552   1.273       .  A
C552        C794   1.439       .  S
O553        C558   1.265       .  A
O554        C556   1.266       .  A
C555        O557   1.275       .  A
C555        C801   1.481       .  S
C556        C833   1.476       .  S
C558        C795   1.435       .  S
C559        C789   1.478       .  S
C559        C791   1.476       .  S
C559        C809   1.476       .  S
C559        C825   1.477       .  S
C560        C786   1.477       .  S
C560        C787   1.474       .  S
C560        C807   1.475       .  S
C560        C828   1.475       .  S
C561        C562   1.533   1_655  S
C561        C567   1.516   1_545  S
C561        C565   1.544   1_545  S
C561        C853   1.516       .  S
C562        H569   1.082       .  S
C562        C563   1.370       .  D
C563       C1476   1.552   1_545  S
C563        C798   1.484       .  S
C564       C1475   1.552       .  S
C564        C568   1.538   1_455  S
C564        C566   1.534       .  S
C564        H570   1.109       .  S
C565        H571   1.086       .  S
C565       C1478   1.375   1_655  D
C566       C1477   1.375   1_455  D
C566        C819   1.486       .  S
C567        H572   1.089       .  S
C567       C1480   1.350       .  D
C568       C1479   1.350       .  D
C568        C877   1.469       .  S
Fe573       O589   2.070       .  S
Fe573       O579   2.075       .  S
Fe573       O586   2.094       .  S
Fe573       O578   2.055       .  S
Fe573       O584   1.954       .  S
Fe574       O577   2.044       .  S
Fe574       O581   2.075       .  S
Fe574       O585   2.070       .  S
Fe574       O590   2.063       .  S
Fe574       O584   1.950       .  S
Fe575       O593   2.079       .  S
Fe575       O580   2.070       .  S
Fe575       O587   2.063       .  S
Fe575       O576   2.088       .  S
Fe575       O584   1.973       .  S
O576        C583   1.272       .  A
O577        C591   1.270       .  A
O578        C583   1.267       .  A
O579        C582   1.271       .  A
O580        C592   1.270       .  A
O581        C594   1.266       .  A
C582        O587   1.267       .  A
C582        C781   1.437       .  S
C583        C784   1.437       .  S
O585        C588   1.272       .  A
O586        C588   1.275       .  A
C588        C785   1.445       .  S
O589        C594   1.265       .  A
O590        C592   1.269       .  A
C591        O593   1.272       .  A
C591        C772   1.467       .  S
C592        C762   1.478       .  S
C594        C792   1.444       .  S
Fe595       O611   2.094       .  S
Fe595       O601   2.059       .  S
Fe596       O599   2.061       .  S
Fe596       O603   2.071       .  S
Fe597       O615   2.063       .  S
Fe597       O609   2.086       .  S
O598        C605   1.266       .  A
O599        C613   1.269       .  A
O600        C605   1.270       .  A
O601        C604   1.268       .  A
O602        C614   1.272       .  A
O603        C616   1.272       .  A
C604        O609   1.272       .  A
C604        C757   1.439       .  S
C605        C759   1.432       .  S
O607        C610   1.266       .  A
O608        C610   1.266       .  A
C610        C788   1.442       .  S
O611        C616   1.275       .  A
O612        C614   1.270       .  A
C613        O615   1.268       .  A
C613        C738   1.473       .  S
C614        C748   1.468       .  S
C616        C790   1.446       .  S
C617        C758   1.469   1_565  S
C617       C1694   1.468       .  S
C617        C793   1.470   1_565  S
C617       C1726   1.469       .  S
C618        C760   1.463       .  S
C618       C1695   1.468   1_545  S
C618        C796   1.467       .  S
C618       C1723   1.470   1_545  S
C619        C620   1.536       .  S
C619        C625   1.517       .  S
C619        C623   1.543       .  S
C619        C775   1.516       .  S
C620        H627   1.083       .  S
C620        C621   1.372       .  D
C621        C622   1.551       .  S
C621        C728   1.485       .  S
C622        C626   1.534       .  S
C622        C624   1.530       .  S
C622        H628   1.110       .  S
C623        H629   1.086       .  S
C623        C624   1.373       .  D
C624        C718   1.476       .  S
C625        H630   1.089       .  S
C625        C626   1.350       .  D
C626        C741   1.465       .  S
C631        C714   1.475   1_565  S
C631       C1628   1.475       .  S
C631        C870   1.478   1_565  S
C631       C1806   1.476       .  S
Fe632       O648   2.082       .  S
Fe632       O638   2.059       .  S
Fe632       O645   2.071       .  S
Fe632       O637   2.072       .  S
Fe632       O643   1.968       .  S
Fe633       O636   2.035       .  S
Fe633       O640   2.064       .  S
Fe633       O644   2.053       .  S
Fe633       O649   2.056       .  S
Fe633       O643   1.963       .  S
Fe634       O652   2.084       .  S
Fe634       O639   2.080       .  S
Fe634       O646   2.091       .  S
Fe634       O635   2.088       .  S
Fe634       O643   1.978       .  S
O635        C642   1.273       .  A
O636        C650   1.265       .  A
O637        C642   1.271       .  A
O638        C641   1.266       .  A
O639        C651   1.274       .  A
O640        C653   1.269       .  A
C641        O646   1.271       .  A
C641        C713   1.444       .  S
C642        C712   1.447       .  S
O644        C647   1.261       .  A
O645        C647   1.265       .  A
C647        C907   1.435       .  S
O648        C653   1.272       .  A
O649        C651   1.270       .  A
C650        O652   1.273       .  A
C650        C721   1.479       .  S
C651        C702   1.483       .  S
C653        C898   1.438       .  S
C654       C1612   1.476   1_545  S
C654        C711   1.479       .  S
C654        C872   1.475       .  S
C654       C1808   1.477   1_545  S
Fe655       O668   2.083       .  S
Fe655       O660   2.061       .  S
Fe655       O666   1.962       .  S
Fe656       O667   2.063       .  S
Fe656       O672   2.042       .  S
Fe656       O666   1.959       .  S
Fe657       O662   2.078       .  S
Fe657       O658   2.093       .  S
Fe657       O666   1.972       .  S
O658        C665   1.272       .  A
O659        C673   1.270       .  A
O660        C665   1.267       .  A
O661        C664   1.271       .  A
O662        C674   1.272       .  A
O663        C676   1.264       .  A
C664        O669   1.272       .  A
C664        C715   1.443       .  S
C665        C699   1.445       .  S
O667        C670   1.269       .  A
O668        C670   1.272       .  A
C670        C906   1.439       .  S
O671        C676   1.266       .  A
O672        C674   1.266       .  A
C673        O675   1.274       .  A
C673        C731   1.483       .  S
C674        C690   1.474       .  S
C676        C900   1.437       .  S
C677        C678   1.543       .  S
C677        C683   1.517       .  S
C677        C681   1.535       .  S
C677        C751   1.516       .  S
C678        H685   1.086       .  S
C678        C679   1.374       .  D
C679        C680   1.533       .  S
C679        C693   1.483       .  S
C680        C684   1.538       .  S
C680        C682   1.552       .  S
C680        H686   1.109       .  S
C681        H687   1.083       .  S
C681        C682   1.371       .  D
C682        C705   1.485       .  S
C683        H688   1.089       .  S
C683        C684   1.350       .  D
C684        C765   1.469       .  S
C689        C690   1.407       .  A
C689        C694   1.386       .  A
C689        H695   1.084       .  S
C690        C691   1.401       .  A
C691        C692   1.405       .  A
C691        H696   1.083       .  S
C692        C693   1.411       .  A
C692        H697   1.082       .  S
C693        C694   1.399       .  A
C694        H698   1.082       .  S
C699        C700   1.213       .  T
C700       C1566   1.476       .  S
C701        C702   1.407       .  A
C701        C706   1.397       .  A
C701        H707   1.083       .  S
C702        C703   1.407       .  A
C703        C704   1.399       .  A
C703        H708   1.083       .  S
C704        C705   1.404       .  A
C704        H709   1.082       .  S
C705        C706   1.404       .  A
C706        H710   1.083       .  S
C711        C712   1.214       .  T
C713        C714   1.212       .  T
C715        C716   1.212       .  T
C716       C1543   1.475       .  S
C717        C718   1.397       .  A
C717        C722   1.386       .  A
C717        H723   1.083       .  S
C718        C719   1.409       .  A
C719        C720   1.406       .  A
C719        H724   1.083       .  S
C720        C721   1.404       .  A
C720        H725   1.083       .  S
C721        C722   1.409       .  A
C722        H726   1.083       .  S
C727        C728   1.404       .  A
C727        C732   1.397       .  A
C727        H733   1.083       .  S
C728        C729   1.405       .  A
C729        C730   1.398       .  A
C729        H734   1.082       .  S
C730        C731   1.406       .  A
C730        H735   1.083       .  S
C731        C732   1.407       .  A
C732        H736   1.083       .  S
C737        C738   1.407       .  A
C737        C742   1.391       .  A
C737        H743   1.081       .  S
C738        C739   1.400       .  A
C739        C740   1.403       .  A
C739        H744   1.083       .  S
C740        C741   1.411       .  A
C740        H745   1.084       .  S
C741        C742   1.396       .  A
C742        H746   1.084       .  S
C747        C748   1.400       .  A
C747        C752   1.384       .  A
C747        H753   1.084       .  S
C748        C749   1.405       .  A
C749        C750   1.402       .  A
C749        H754   1.083       .  S
C750        C751   1.410       .  A
C750        H755   1.079       .  S
C751        C752   1.406       .  A
C752        H756   1.084       .  S
C757        C758   1.209       .  T
C759        C760   1.205       .  T
C761        C762   1.401       .  A
C761        C766   1.405       .  A
C761        H767   1.083       .  S
C762        C763   1.408       .  A
C763        C764   1.391       .  A
C763        H768   1.080       .  S
C764        C765   1.396       .  A
C764        H769   1.084       .  S
C765        C766   1.412       .  A
C766        H770   1.083       .  S
C771        C772   1.400       .  A
C771        C776   1.384       .  A
C771        H777   1.084       .  S
C772        C773   1.404       .  A
C773        C774   1.402       .  A
C773        H778   1.083       .  S
C774        C775   1.410       .  A
C774        H779   1.079       .  S
C775        C776   1.406       .  A
C776        H780   1.084       .  S
C781        C782   1.208       .  T
C782       C1529   1.468       .  S
C783       C1530   1.468       .  S
C783        C784   1.208       .  T
C785        C786   1.213       .  T
C787        C788   1.211       .  T
C789        C790   1.213       .  T
C791        C792   1.212       .  T
C793        C794   1.209       .  T
C795        C796   1.207       .  T
C797        C798   1.404       .  A
C797        C802   1.398       .  A
C797       H1715   1.082   1_545  S
C798        C799   1.405       .  A
C799        C800   1.396       .  A
C799        H804   1.083       .  S
C800        C801   1.406       .  A
C800        H805   1.083       .  S
C801        C802   1.407       .  A
C802        H806   1.083       .  S
H803       C1709   1.082       .  S
C807        C808   1.212       .  T
C809        C810   1.213       .  T
C811       C1530   1.470       .  S
C811        C812   1.208       .  T
C813        C814   1.208       .  T
C814       C1529   1.469       .  S
C815        C816   1.402       .  A
C815        C820   1.406       .  A
C815        H821   1.083       .  S
C816        C817   1.407       .  A
C817        C818   1.389       .  A
C817        H822   1.084       .  S
C818        C819   1.401       .  A
C818        H823   1.082       .  S
C819        C820   1.411       .  A
C820        H824   1.082       .  S
C825        C826   1.213       .  T
C827        C828   1.212       .  T
C829        C830   1.412       .  A
C829        C834   1.407       .  A
C829        H835   1.082       .  S
C830        C831   1.400       .  A
C831        C832   1.388       .  A
C831       H1748   1.082       .  S
C832        C833   1.406       .  A
C832        H837   1.084       .  S
C833        C834   1.402       .  A
C834        H838   1.083       .  S
H836       C1743   1.082       .  S
C839        C840   1.404       .  A
C839        C844   1.396       .  A
C839        H845   1.083       .  S
C840        C841   1.403       .  A
C841        C842   1.397       .  A
C841        H846   1.082       .  S
C842        C843   1.407       .  A
C842        H847   1.083       .  S
C843        C844   1.406       .  A
C844        H848   1.083       .  S
C849        C850   1.400       .  A
C849        C854   1.385       .  A
C849        H855   1.084       .  S
C850        C851   1.404       .  A
C851        C852   1.400       .  A
C851        H856   1.083       .  S
C852        C853   1.410       .  A
C852        H857   1.078       .  S
C853        C854   1.406       .  A
C854        H858   1.084   1_545  S
C859        C860   1.401       .  A
C859        C864   1.404       .  A
C859        H865   1.083       .  S
C860        C861   1.408       .  A
C861        C862   1.392       .  A
C861        H866   1.082       .  S
C862        C863   1.398       .  A
C862        H867   1.084       .  S
C863        C864   1.410       .  A
C864        H868   1.083       .  S
C869        C870   1.213       .  T
C871        C872   1.211       .  T
C873        C874   1.407       .  A
C873        C878   1.392       .  A
C873        H879   1.081       .  S
C874        C875   1.401       .  A
C875        C876   1.405       .  A
C875        H880   1.083       .  S
C876        C877   1.412       .  A
C876        H881   1.083       .  S
C877        C878   1.397       .  A
C878        H882   1.084       .  S
C883        C884   1.403       .  A
C883        C888   1.401       .  A
C883        H889   1.083       .  S
C884        C885   1.401       .  A
C885        C886   1.385       .  A
C885        H890   1.084       .  S
C886        C887   1.406       .  A
C886       H1803   1.083       .  S
C887        C888   1.411       .  A
C888        H892   1.078       .  S
H891       C1798   1.083   1_545  S
C893        C894   1.212       .  T
C894       C1543   1.476       .  S
C895        C896   1.213       .  T
C896       C1566   1.477       .  S
C897        C898   1.208       .  T
C899        C900   1.208       .  T
C901        C902   1.208       .  T
C903        C904   1.209       .  T
C905        C906   1.209       .  T
C907        C908   1.207       .  T
C909        C910   1.208       .  T
C911        C912   1.206       .  T
C913       C1361   1.470       .  S
C913       C1364   1.468       .  S
C913       C1365   1.468       .  S
C913       C1368   1.464       .  S
C914       C1353   1.469       .  S
C914       C1355   1.469       .  S
C914       C1357   1.467       .  S
C914       C1360   1.470       .  S
Fe915       O931   2.094       .  S
Fe915       O921   2.057       .  S
Fe915       O928   2.071       .  S
Fe915       O920   2.076       .  S
Fe915       O926   1.954       .  S
Fe916       O919   2.064       .  S
Fe916       O923   2.070       .  S
Fe916       O927   2.075       .  S
Fe916       O932   2.043       .  S
Fe916       O926   1.951       .  S
Fe917       O935   2.066       .  S
Fe917       O922   2.079       .  S
Fe917       O929   2.086       .  S
Fe917       O918   2.062       .  S
Fe917       O926   1.972       .  S
O918        C925   1.266       .  A
O919        C933   1.269       .  A
O920        C925   1.270       .  A
O921        C924   1.268       .  A
O922        C934   1.273       .  A
O923        C936   1.272       .  A
C924        O929   1.272       .  A
C924       C1366   1.437       .  S
C925       C1358   1.437       .  S
O927        C930   1.266       .  A
O928        C930   1.265       .  A
C930       C1349   1.444       .  S
O931        C936   1.275       .  A
O932        C934   1.270       .  A
C933        O935   1.268       .  A
C933       C1330   1.477       .  S
C934       C1340   1.467       .  S
C936       C1351   1.445       .  S
Fe937      O1409   2.071       .  S
Fe937      O1399   2.075       .  S
Fe937       O950   2.096       .  S
Fe937       O942   2.058       .  S
Fe937       O948   1.954       .  S
Fe938      O1397   2.043       .  S
Fe938      O1401   2.074       .  S
Fe938       O949   2.070       .  S
Fe938       O954   2.062       .  S
Fe938       O948   1.952       .  S
Fe939      O1413   2.078       .  S
Fe939       O944   2.066       .  S
Fe939      O1407   2.059       .  S
Fe939       O940   2.087       .  S
Fe939       O948   1.973       .  S
O940        C947   1.272       .  A
O941      Fe1394   2.043       .  S
O941        C955   1.270       .  A
O942        C947   1.268       .  A
O943      Fe1393   2.075   1_554  S
O943        C946   1.270       .  A
O944        C956   1.269       .  A
O945      Fe1394   2.074       .  S
O945        C958   1.265       .  A
C946        O951   1.266       .  A
C946       C1367   1.434       .  S
C947       C1359   1.439       .  S
O949        C952   1.272       .  A
O950        C952   1.276       .  A
O951      Fe1395   2.060   1_554  S
C952       C1325   1.446       .  S
O953      Fe1393   2.071   1_554  S
O953        C958   1.265       .  A
O954        C956   1.269       .  A
C955        O957   1.273       .  A
C955       C1306   1.468       .  S
C956       C1316   1.477       .  S
O957      Fe1395   2.078   1_554  S
C958       C1327   1.443       .  S
C959        C960   1.544   1_565  S
C959        C965   1.516   1_565  S
C959        C963   1.534   1_655  S
C959       C1343   1.516       .  S
C961        C962   1.535       .  S
C961       C1286   1.487       .  S
C962        C966   1.537   1_455  S
C962        H968   1.109       .  S
C963        H969   1.082       .  S
C963        C964   1.369       .  D
C964       C1296   1.482       .  S
C966       C1319   1.468       .  S
Fe971       O987   2.083       .  S
Fe971       O977   2.058       .  S
Fe971      O1440   2.067   1_554  S
Fe971      O1432   2.073   1_554  S
Fe971       O982   1.964       .  S
Fe972       O975   2.049   1_556  S
Fe972       O979   2.064   1_556  S
Fe972      O1439   2.062       .  S
Fe972      O1444   2.050       .  S
Fe972       O982   1.961   1_556  S
Fe973       O991   2.081       .  S
Fe973      O1434   2.081   1_554  S
Fe973       O985   2.092       .  S
Fe973      O1430   2.083   1_554  S
Fe973       O982   1.973       .  S
O974      Fe1429   2.083       .  S
O974        C981   1.272       .  A
O975        C989   1.267       .  A
O976      Fe1427   2.073       .  S
O976        C981   1.270       .  A
O977        C980   1.266       .  A
O978      Fe1429   2.081       .  S
O978        C990   1.274       .  A
O979        C992   1.269       .  A
C980        O985   1.272       .  A
C980       C1283   1.443       .  S
C981       C1282   1.445       .  S
O983      Fe1428   2.062       .  S
O983        C986   1.263       .  A
O984      Fe1427   2.067       .  S
O984        C986   1.265       .  A
C986       C1269   1.437       .  S
O987        C992   1.273       .  A
O988      Fe1428   2.050       .  S
O988        C990   1.269       .  A
C989        O991   1.272       .  A
C989       C1272   1.477       .  S
C990       C1299   1.480       .  S
C992       C1268   1.438       .  S
Fe993      O1009   2.067       .  S
Fe993       O999   2.073       .  S
Fe993      O1006   2.087       .  S
Fe993       O998   2.060       .  S
Fe993      O1004   1.961       .  S
Fe994       O997   2.050       .  S
Fe994      O1001   2.061       .  S
Fe994      O1005   2.061       .  S
Fe994      O1010   2.046       .  S
Fe994      O1004   1.958       .  S
Fe995      O1013   2.084       .  S
Fe995      O1000   2.081       .  S
Fe995      O1007   2.081       .  S
Fe995       O996   2.096       .  S
Fe995      O1004   1.971       .  S
O996       C1003   1.273       .  A
O997       C1011   1.269       .  A
O998       C1003   1.267       .  A
O999       C1002   1.270       .  A
O1000      C1012   1.272       .  A
O1001      C1014   1.263       .  A
C1002      O1007   1.271       .  A
C1002      C1264   1.444       .  S
C1003      C1266   1.445       .  S
O1005      C1008   1.269       .  A
O1006      C1008   1.273       .  A
C1008      C1250   1.439       .  S
O1009      C1014   1.265       .  A
O1010      C1012   1.266       .  A
C1011      O1013   1.275       .  A
C1011      C1257   1.481       .  S
C1012      C1289   1.476       .  S
C1014      C1251   1.435       .  S
C1015      C1245   1.478       .  S
C1015      C1247   1.476       .  S
C1015      C1265   1.476       .  S
C1015      C1281   1.477       .  S
C1016      C1242   1.477       .  S
C1016      C1243   1.474       .  S
C1016      C1263   1.475       .  S
C1016      C1284   1.475       .  S
C1017      C1018   1.533   1_655  S
C1017      C1023   1.516       .  S
C1017      C1021   1.544       .  S
C1017      C1309   1.516       .  S
C1018      H1025   1.082       .  S
C1018      C1019   1.370       .  D
C1019      C1254   1.484       .  S
C1020      C1024   1.538   1_455  S
C1020      C1022   1.534       .  S
C1020      H1026   1.109       .  S
C1021      H1027   1.086       .  S
C1022      C1275   1.486       .  S
C1023      H1028   1.089       .  S
C1024      C1333   1.469       .  S
Fe1029     O1045   2.070       .  S
Fe1029     O1035   2.076       .  S
Fe1029     O1042   2.094       .  S
Fe1029     O1034   2.055       .  S
Fe1029     O1040   1.954       .  S
Fe1030     O1033   2.044       .  S
Fe1030     O1037   2.075       .  S
Fe1030     O1041   2.070       .  S
Fe1030     O1046   2.063       .  S
Fe1030     O1040   1.950       .  S
Fe1031     O1049   2.079       .  S
Fe1031     O1036   2.070       .  S
Fe1031     O1043   2.063       .  S
Fe1031     O1032   2.088       .  S
Fe1031     O1040   1.973       .  S
O1032      C1039   1.272       .  A
O1033      C1047   1.270       .  A
O1034      C1039   1.267       .  A
O1035      C1038   1.271       .  A
O1036      C1048   1.270       .  A
O1037      C1050   1.266       .  A
C1038      O1043   1.267       .  A
C1038      C1237   1.437       .  S
C1039      C1240   1.437       .  S
O1041      C1044   1.272       .  A
O1042      C1044   1.275       .  A
C1044      C1241   1.445       .  S
O1045      C1050   1.265       .  A
O1046      C1048   1.269       .  A
C1047      O1049   1.272       .  A
C1047      C1228   1.467       .  S
C1048      C1218   1.478       .  S
C1050      C1248   1.444       .  S
Fe1051     O1067   2.094       .  S
Fe1051     O1057   2.059       .  S
Fe1051     O1520   2.070       .  S
Fe1051     O1512   2.075       .  S
Fe1051     O1518   1.954       .  S
Fe1052     O1055   2.061       .  S
Fe1052     O1059   2.071       .  S
Fe1052     O1519   2.075       .  S
Fe1052     O1524   2.045       .  S
Fe1052     O1518   1.950       .  S
Fe1053     O1071   2.063       .  S
Fe1053     O1514   2.078       .  S
Fe1053     O1065   2.086       .  S
Fe1053     O1510   2.057       .  S
Fe1053     O1518   1.972       .  S
O1054     Fe1509   2.057   1_554  S
O1054      C1061   1.266       .  A
O1055      C1069   1.269       .  A
O1056     Fe1507   2.075   1_554  S
O1056      C1061   1.270       .  A
O1057      C1060   1.268       .  A
O1058     Fe1509   2.078   1_554  S
O1058      C1070   1.272       .  A
O1059      C1072   1.272       .  A
C1060      O1065   1.272       .  A
C1060      C1213   1.439       .  S
C1061      C1215   1.432       .  S
O1062     Fe1507   1.954       .  S
O1062     Fe1508   1.950       .  S
O1062     Fe1509   1.972       .  S
O1063     Fe1508   2.075   1_554  S
O1063      C1066   1.266       .  A
O1064     Fe1507   2.070   1_554  S
O1064      C1066   1.266       .  A
C1066      C1244   1.442       .  S
O1067      C1072   1.275       .  A
O1068     Fe1508   2.045   1_554  S
O1068      C1070   1.270       .  A
C1069      O1071   1.268       .  A
C1069      C1194   1.473       .  S
C1070      C1204   1.468       .  S
C1072      C1246   1.446       .  S
C1073      C1214   1.469       .  S
C1073      C1249   1.470       .  S
C1074      C1216   1.463       .  S
C1074      C1252   1.467       .  S
C1075      C1076   1.536       .  S
C1075      C1081   1.517       .  S
C1075      C1079   1.543       .  S
C1075      C1231   1.516       .  S
C1076      H1083   1.083       .  S
C1076      C1077   1.372       .  D
C1077      C1078   1.551       .  S
C1077      C1184   1.484       .  S
C1078      C1082   1.534       .  S
C1078      C1080   1.530       .  S
C1078      H1084   1.110       .  S
C1079      H1085   1.086       .  S
C1079      C1080   1.373       .  D
C1080      C1174   1.476       .  S
C1081      H1086   1.089       .  S
C1081      C1082   1.350       .  D
C1082      C1197   1.465       .  S
C1087      C1170   1.475       .  S
C1087      C1326   1.478       .  S
Fe1088     O1104   2.082       .  S
Fe1088     O1094   2.059       .  S
Fe1088     O1101   2.071       .  S
Fe1088     O1093   2.072       .  S
Fe1088     O1099   1.968       .  S
Fe1089     O1092   2.035       .  S
Fe1089     O1096   2.064       .  S
Fe1089     O1100   2.053       .  S
Fe1089     O1105   2.056       .  S
Fe1089     O1099   1.963       .  S
Fe1090     O1108   2.085       .  S
Fe1090     O1095   2.080       .  S
Fe1090     O1102   2.091       .  S
Fe1090     O1091   2.087       .  S
Fe1090     O1099   1.978       .  S
O1091      C1098   1.273       .  A
O1092      C1106   1.265       .  A
O1093      C1098   1.271       .  A
O1094      C1097   1.266       .  A
O1095      C1107   1.274       .  A
O1096      C1109   1.269       .  A
C1097      O1102   1.271       .  A
C1097      C1169   1.444       .  S
C1098      C1168   1.447       .  S
O1100      C1103   1.261       .  A
O1101      C1103   1.265       .  A
C1103      C1363   1.435       .  S
O1104      C1109   1.272       .  A
O1105      C1107   1.270       .  A
C1106      O1108   1.273       .  A
C1106      C1177   1.479       .  S
C1107      C1158   1.483       .  S
C1109      C1354   1.438       .  S
C1110      C1167   1.479       .  S
C1110      C1328   1.475       .  S
Fe1111     O1583   2.070   1_554  S
Fe1111     O1573   2.074   1_554  S
Fe1111     O1124   2.083       .  S
Fe1111     O1116   2.061       .  S
Fe1111     O1122   1.962       .  S
Fe1112     O1571   2.055       .  S
Fe1112     O1575   2.061       .  S
Fe1112     O1123   2.063   1_556  S
Fe1112     O1128   2.042   1_556  S
Fe1112     O1122   1.959   1_556  S
Fe1113     O1587   2.082   1_554  S
Fe1113     O1118   2.078       .  S
Fe1113     O1581   2.080   1_554  S
Fe1113     O1114   2.093       .  S
Fe1113     O1122   1.972       .  S
O1114      C1121   1.272       .  A
O1115     Fe1568   2.055       .  S
O1115      C1129   1.270       .  A
O1116      C1121   1.267       .  A
O1117     Fe1567   2.074       .  S
O1117      C1120   1.271       .  A
O1118      C1130   1.272       .  A
O1119     Fe1568   2.061       .  S
O1119      C1132   1.264       .  A
C1120      O1125   1.272       .  A
C1120      C1171   1.443       .  S
C1121      C1155   1.445       .  S
O1123      C1126   1.269       .  A
O1124      C1126   1.272       .  A
O1125     Fe1569   2.080       .  S
C1126      C1362   1.439       .  S
O1127     Fe1567   2.070       .  S
O1127      C1132   1.266       .  A
O1128      C1130   1.266       .  A
C1129      O1131   1.274       .  A
C1129      C1187   1.483       .  S
C1130      C1146   1.474       .  S
O1131     Fe1569   2.082       .  S
C1132      C1356   1.437       .  S
C1133      C1134   1.543       .  S
C1133      C1139   1.517       .  S
C1133      C1137   1.535       .  S
C1133      C1207   1.516       .  S
C1134      H1141   1.086       .  S
C1134      C1135   1.374       .  D
C1135      C1136   1.533       .  S
C1135      C1149   1.483       .  S
C1136      C1140   1.538       .  S
C1136      C1138   1.552       .  S
C1136      H1142   1.109       .  S
C1137      H1143   1.083       .  S
C1137      C1138   1.371       .  D
C1138      C1161   1.485       .  S
C1139      H1144   1.089       .  S
C1139      C1140   1.350       .  D
C1140      C1221   1.469       .  S
C1145      C1146   1.407       .  A
C1145      C1150   1.386       .  A
C1145      H1151   1.084       .  S
C1146      C1147   1.401       .  A
C1147      C1148   1.405       .  A
C1147      H1152   1.083       .  S
C1148      C1149   1.411       .  A
C1148      H1153   1.082       .  S
C1149      C1150   1.399       .  A
C1150      H1154   1.082       .  S
C1155      C1156   1.213       .  T
C1157      C1158   1.407       .  A
C1157      C1162   1.397       .  A
C1157      H1163   1.083       .  S
C1158      C1159   1.407       .  A
C1159      C1160   1.399       .  A
C1159      H1164   1.083       .  S
C1160      C1161   1.404       .  A
C1160      H1165   1.082       .  S
C1161      C1162   1.404       .  A
C1162      H1166   1.083       .  S
C1167      C1168   1.214       .  T
C1169      C1170   1.212       .  T
C1171      C1172   1.212       .  T
C1173      C1174   1.397       .  A
C1173      C1178   1.386       .  A
C1173      H1179   1.083       .  S
C1174      C1175   1.409       .  A
C1175      C1176   1.406       .  A
C1175      H1180   1.083       .  S
C1176      C1177   1.404       .  A
C1176      H1181   1.083       .  S
C1177      C1178   1.409       .  A
C1178      H1182   1.083       .  S
C1183      C1184   1.404       .  A
C1183      C1188   1.397       .  A
C1183      H1189   1.083       .  S
C1184      C1185   1.405       .  A
C1185      C1186   1.398       .  A
C1185      H1190   1.082       .  S
C1186      C1187   1.406       .  A
C1186      H1191   1.083       .  S
C1187      C1188   1.407       .  A
C1188      H1192   1.083       .  S
C1193      C1194   1.407       .  A
C1193      C1198   1.391       .  A
C1193      H1199   1.081       .  S
C1194      C1195   1.400       .  A
C1195      C1196   1.403       .  A
C1195      H1200   1.083       .  S
C1196      C1197   1.411       .  A
C1196      H1201   1.084       .  S
C1197      C1198   1.396       .  A
C1198      H1202   1.084       .  S
C1203      C1204   1.400       .  A
C1203      C1208   1.384       .  A
C1203      H1209   1.084       .  S
C1204      C1205   1.405       .  A
C1205      C1206   1.402       .  A
C1205      H1210   1.083       .  S
C1206      C1207   1.410       .  A
C1206      H1211   1.079       .  S
C1207      C1208   1.406       .  A
C1208      H1212   1.084       .  S
C1213      C1214   1.209       .  T
C1215      C1216   1.205       .  T
C1217      C1218   1.401       .  A
C1217      C1222   1.405       .  A
C1217      H1223   1.083       .  S
C1218      C1219   1.408       .  A
C1219      C1220   1.391       .  A
C1219      H1224   1.080       .  S
C1220      C1221   1.396       .  A
C1220      H1225   1.084       .  S
C1221      C1222   1.412       .  A
C1222      H1226   1.083       .  S
C1227      C1228   1.400       .  A
C1227      C1232   1.384       .  A
C1227      H1233   1.084       .  S
C1228      C1229   1.404       .  A
C1229      C1230   1.402       .  A
C1229      H1234   1.083       .  S
C1230      C1231   1.410       .  A
C1230      H1235   1.079       .  S
C1231      C1232   1.406       .  A
C1232      H1236   1.084       .  S
C1237      C1238   1.208       .  T
C1239      C1240   1.208       .  T
C1241      C1242   1.213       .  T
C1243      C1244   1.211       .  T
C1245      C1246   1.213       .  T
C1247      C1248   1.212       .  T
C1249      C1250   1.209       .  T
C1251      C1252   1.207       .  T
C1253      C1254   1.404       .  A
C1253      C1258   1.398       .  A
C1254      C1255   1.405       .  A
C1255      C1256   1.396       .  A
C1255      H1260   1.083       .  S
C1256      C1257   1.406       .  A
C1256      H1261   1.083       .  S
C1257      C1258   1.407       .  A
C1258      H1262   1.083       .  S
C1263      C1264   1.212       .  T
C1265      C1266   1.213       .  T
C1267      C1268   1.208       .  T
C1269      C1270   1.208       .  T
C1271      C1272   1.402       .  A
C1271      C1276   1.406       .  A
C1271      H1277   1.083       .  S
C1272      C1273   1.406       .  A
C1273      C1274   1.389       .  A
C1273      H1278   1.084       .  S
C1274      C1275   1.401       .  A
C1274      H1279   1.082       .  S
C1275      C1276   1.411       .  A
C1276      H1280   1.082       .  S
C1281      C1282   1.213       .  T
C1283      C1284   1.212       .  T
C1285      C1286   1.412       .  A
C1285      C1290   1.407       .  A
C1285      H1291   1.082       .  S
C1286      C1287   1.400       .  A
C1287      C1288   1.388       .  A
C1288      C1289   1.406       .  A
C1288      H1293   1.084       .  S
C1289      C1290   1.402       .  A
C1290      H1294   1.083       .  S
C1295      C1296   1.404       .  A
C1295      C1300   1.396       .  A
C1295      H1301   1.083       .  S
C1296      C1297   1.403       .  A
C1297      C1298   1.397       .  A
C1297      H1302   1.082   1_565  S
C1298      C1299   1.407       .  A
C1298      H1303   1.083       .  S
C1299      C1300   1.406       .  A
C1300      H1304   1.083       .  S
C1305      C1306   1.400       .  A
C1305      C1310   1.385       .  A
C1305      H1311   1.084       .  S
C1306      C1307   1.404       .  A
C1307      C1308   1.401       .  A
C1307      H1312   1.083       .  S
C1308      C1309   1.410       .  A
C1308      H1313   1.078       .  S
C1309      C1310   1.406       .  A
C1310      H1314   1.084       .  S
C1315      C1316   1.401       .  A
C1315      C1320   1.404       .  A
C1315      H1321   1.083       .  S
C1316      C1317   1.408       .  A
C1317      C1318   1.392       .  A
C1317      H1322   1.082       .  S
C1318      C1319   1.398       .  A
C1318      H1323   1.084       .  S
C1319      C1320   1.410       .  A
C1320      H1324   1.083       .  S
C1325      C1326   1.213       .  T
C1327      C1328   1.211       .  T
C1329      C1330   1.407       .  A
C1329      C1334   1.392       .  A
C1329      H1335   1.081       .  S
C1330      C1331   1.401       .  A
C1331      C1332   1.405       .  A
C1331      H1336   1.083       .  S
C1332      C1333   1.412       .  A
C1332      H1337   1.083       .  S
C1333      C1334   1.397       .  A
C1334      H1338   1.084       .  S
C1339      C1340   1.403       .  A
C1339      C1344   1.401       .  A
C1339      H1345   1.083       .  S
C1340      C1341   1.401       .  A
C1341      C1342   1.385       .  A
C1341      H1346   1.084       .  S
C1342      C1343   1.406       .  A
C1343      C1344   1.411       .  A
C1344      H1348   1.078       .  S
C1349      C1350   1.212       .  T
C1351      C1352   1.213       .  T
C1353      C1354   1.208       .  T
C1355      C1356   1.208       .  T
C1357      C1358   1.208       .  T
C1359      C1360   1.209       .  T
C1361      C1362   1.209       .  T
C1363      C1364   1.207       .  T
C1365      C1366   1.208       .  T
C1367      C1368   1.206       .  T
C1369      C1817   1.470       .  S
C1369      C1820   1.468       .  S
C1369      C1821   1.468       .  S
C1369      C1824   1.464       .  S
C1370      C1809   1.470       .  S
C1370      C1811   1.469       .  S
C1370      C1813   1.467       .  S
C1370      C1816   1.470       .  S
Fe1371     O1387   2.094       .  S
Fe1371     O1377   2.057       .  S
Fe1371     O1384   2.071       .  S
Fe1371     O1376   2.076       .  S
Fe1371     O1382   1.954       .  S
Fe1372     O1375   2.064       .  S
Fe1372     O1379   2.070       .  S
Fe1372     O1383   2.075       .  S
Fe1372     O1388   2.043       .  S
Fe1372     O1382   1.951       .  S
Fe1373     O1391   2.066       .  S
Fe1373     O1378   2.079       .  S
Fe1373     O1385   2.086       .  S
Fe1373     O1374   2.062       .  S
Fe1373     O1382   1.972       .  S
O1374      C1381   1.266       .  A
O1375      C1389   1.269       .  A
O1376      C1381   1.270       .  A
O1377      C1380   1.268       .  A
O1378      C1390   1.273       .  A
O1379      C1392   1.272       .  A
C1380      O1385   1.272       .  A
C1380      C1822   1.437       .  S
C1381      C1814   1.437       .  S
O1383      C1386   1.266       .  A
O1384      C1386   1.265       .  A
C1386      C1805   1.444       .  S
O1387      C1392   1.275       .  A
O1388      C1390   1.270       .  A
C1389      O1391   1.268       .  A
C1389      C1786   1.477       .  S
C1390      C1796   1.467       .  S
C1392      C1807   1.445       .  S
Fe1393     O1406   2.096       .  S
Fe1393     O1398   2.058       .  S
Fe1393     O1404   1.954       .  S
Fe1394     O1405   2.070   1_554  S
Fe1394     O1410   2.062   1_554  S
Fe1394     O1404   1.952   1_554  S
Fe1395     O1400   2.066       .  S
Fe1395     O1396   2.087       .  S
Fe1395     O1404   1.973       .  S
O1396      C1403   1.272       .  A
O1397      C1411   1.270       .  A
O1398      C1403   1.268       .  A
O1399      C1402   1.270       .  A
O1400      C1412   1.269       .  A
O1401      C1414   1.265       .  A
C1402      O1407   1.266       .  A
C1402      C1823   1.434       .  S
C1403      C1815   1.439       .  S
O1405      C1408   1.272       .  A
O1406      C1408   1.276       .  A
C1408      C1781   1.446       .  S
O1409      C1414   1.265       .  A
O1410      C1412   1.269       .  A
C1411      O1413   1.273       .  A
C1411      C1762   1.468       .  S
C1412      C1772   1.477       .  S
C1414      C1783   1.443       .  S
C1415      C1416   1.544   1_565  S
C1415      C1421   1.516   1_565  S
C1415      C1419   1.534   1_655  S
C1415      C1799   1.516       .  S
C1417      C1418   1.535       .  S
C1417      C1742   1.487       .  S
C1418      C1422   1.537   1_455  S
C1418      H1424   1.109       .  S
C1419      H1425   1.082       .  S
C1419      C1420   1.369       .  D
C1420      C1752   1.482       .  S
C1422      C1775   1.468       .  S
Fe1427     O1443   2.083       .  S
Fe1427     O1433   2.058       .  S
Fe1427     O1438   1.964       .  S
Fe1428     O1431   2.049       .  S
Fe1428     O1435   2.064       .  S
Fe1428     O1438   1.961       .  S
Fe1429     O1447   2.081       .  S
Fe1429     O1441   2.092       .  S
Fe1429     O1438   1.973       .  S
O1430      C1437   1.272       .  A
O1431      C1445   1.267       .  A
O1432      C1437   1.270       .  A
O1433      C1436   1.266       .  A
O1434      C1446   1.274       .  A
O1435      C1448   1.269       .  A
C1436      O1441   1.272       .  A
C1436      C1739   1.443       .  S
C1437      C1738   1.445       .  S
O1439      C1442   1.263       .  A
O1440      C1442   1.265       .  A
C1442      C1725   1.437       .  S
O1443      C1448   1.273       .  A
O1444      C1446   1.269       .  A
C1445      O1447   1.272       .  A
C1445      C1728   1.477       .  S
C1446      C1755   1.480       .  S
C1448      C1724   1.438       .  S
Fe1449     O1465   2.067       .  S
Fe1449     O1455   2.073       .  S
Fe1449     O1462   2.087       .  S
Fe1449     O1454   2.060       .  S
Fe1449     O1460   1.961       .  S
Fe1450     O1453   2.050       .  S
Fe1450     O1457   2.061       .  S
Fe1450     O1461   2.061       .  S
Fe1450     O1466   2.046       .  S
Fe1450     O1460   1.958       .  S
Fe1451     O1469   2.084       .  S
Fe1451     O1456   2.081       .  S
Fe1451     O1463   2.081       .  S
Fe1451     O1452   2.096       .  S
Fe1451     O1460   1.971       .  S
O1452      C1459   1.273       .  A
O1453      C1467   1.269       .  A
O1454      C1459   1.267       .  A
O1455      C1458   1.270       .  A
O1456      C1468   1.272       .  A
O1457      C1470   1.263       .  A
C1458      O1463   1.271       .  A
C1458      C1720   1.444       .  S
C1459      C1722   1.445       .  S
O1461      C1464   1.269       .  A
O1462      C1464   1.273       .  A
C1464      C1706   1.439       .  S
O1465      C1470   1.265       .  A
O1466      C1468   1.266       .  A
C1467      O1469   1.275       .  A
C1467      C1713   1.481       .  S
C1468      C1745   1.476       .  S
C1470      C1707   1.435       .  S
C1471      C1701   1.478       .  S
C1471      C1703   1.476       .  S
C1471      C1721   1.476       .  S
C1471      C1737   1.477       .  S
C1472      C1698   1.477       .  S
C1472      C1699   1.474       .  S
C1472      C1719   1.475       .  S
C1472      C1740   1.475       .  S
C1473      C1474   1.533   1_655  S
C1473      C1479   1.516       .  S
C1473      C1477   1.544       .  S
C1473      C1765   1.516       .  S
C1474      H1481   1.082       .  S
C1474      C1475   1.370       .  D
C1475      C1710   1.484       .  S
C1476      C1480   1.538   1_455  S
C1476      C1478   1.534       .  S
C1476      H1482   1.109       .  S
C1477      H1483   1.086       .  S
C1478      C1731   1.486       .  S
C1479      H1484   1.089       .  S
C1480      C1789   1.469       .  S
Fe1485     O1501   2.070       .  S
Fe1485     O1491   2.076       .  S
Fe1485     O1498   2.094       .  S
Fe1485     O1490   2.055       .  S
Fe1485     O1496   1.954       .  S
Fe1486     O1489   2.044       .  S
Fe1486     O1493   2.075       .  S
Fe1486     O1497   2.070       .  S
Fe1486     O1502   2.063       .  S
Fe1486     O1496   1.950       .  S
Fe1487     O1505   2.079       .  S
Fe1487     O1492   2.070       .  S
Fe1487     O1499   2.063       .  S
Fe1487     O1488   2.088       .  S
Fe1487     O1496   1.973       .  S
O1488      C1495   1.272       .  A
O1489      C1503   1.270       .  A
O1490      C1495   1.267       .  A
O1491      C1494   1.271       .  A
O1492      C1504   1.270       .  A
O1493      C1506   1.266       .  A
C1494      O1499   1.267       .  A
C1494      C1693   1.437       .  S
C1495      C1696   1.437       .  S
O1497      C1500   1.272       .  A
O1498      C1500   1.275       .  A
C1500      C1697   1.445       .  S
O1501      C1506   1.265       .  A
O1502      C1504   1.269       .  A
C1503      O1505   1.272       .  A
C1503      C1684   1.467       .  S
C1504      C1674   1.478       .  S
C1506      C1704   1.444       .  S
Fe1507     O1523   2.094       .  S
Fe1507     O1513   2.059       .  S
Fe1508     O1511   2.061       .  S
Fe1508     O1515   2.071       .  S
Fe1509     O1527   2.063       .  S
Fe1509     O1521   2.086       .  S
O1510      C1517   1.266       .  A
O1511      C1525   1.269       .  A
O1512      C1517   1.270       .  A
O1513      C1516   1.268       .  A
O1514      C1526   1.272       .  A
O1515      C1528   1.272       .  A
C1516      O1521   1.272       .  A
C1516      C1669   1.439       .  S
C1517      C1671   1.432       .  S
O1519      C1522   1.266       .  A
O1520      C1522   1.266       .  A
C1522      C1700   1.442       .  S
O1523      C1528   1.275       .  A
O1524      C1526   1.270       .  A
C1525      O1527   1.268       .  A
C1525      C1650   1.473       .  S
C1526      C1660   1.468       .  S
C1528      C1702   1.446       .  S
C1529      C1670   1.469       .  S
C1529      C1705   1.470       .  S
C1530      C1672   1.463       .  S
C1530      C1708   1.467       .  S
C1531      C1532   1.536       .  S
C1531      C1537   1.517       .  S
C1531      C1535   1.543       .  S
C1531      C1687   1.516       .  S
C1532      H1539   1.083       .  S
C1532      C1533   1.372       .  D
C1533      C1534   1.551       .  S
C1533      C1640   1.484       .  S
C1534      C1538   1.534       .  S
C1534      C1536   1.530       .  S
C1534      H1540   1.110       .  S
C1535      H1541   1.086       .  S
C1535      C1536   1.373       .  D
C1536      C1630   1.476       .  S
C1537      H1542   1.089       .  S
C1537      C1538   1.350       .  D
C1538      C1653   1.465       .  S
C1543      C1626   1.475       .  S
C1543      C1782   1.478       .  S
Fe1544     O1560   2.082       .  S
Fe1544     O1550   2.059       .  S
Fe1544     O1557   2.071       .  S
Fe1544     O1549   2.072       .  S
Fe1544     O1555   1.968       .  S
Fe1545     O1548   2.035       .  S
Fe1545     O1552   2.064       .  S
Fe1545     O1556   2.053       .  S
Fe1545     O1561   2.056       .  S
Fe1545     O1555   1.963       .  S
Fe1546     O1564   2.085       .  S
Fe1546     O1551   2.080       .  S
Fe1546     O1558   2.091       .  S
Fe1546     O1547   2.088       .  S
Fe1546     O1555   1.978       .  S
O1547      C1554   1.273       .  A
O1548      C1562   1.265       .  A
O1549      C1554   1.271       .  A
O1550      C1553   1.266       .  A
O1551      C1563   1.274       .  A
O1552      C1565   1.269       .  A
C1553      O1558   1.271       .  A
C1553      C1625   1.444       .  S
C1554      C1624   1.447       .  S
O1556      C1559   1.261       .  A
O1557      C1559   1.265       .  A
C1559      C1819   1.435       .  S
O1560      C1565   1.272       .  A
O1561      C1563   1.270       .  A
C1562      O1564   1.273       .  A
C1562      C1633   1.479       .  S
C1563      C1614   1.483       .  S
C1565      C1810   1.438       .  S
C1566      C1623   1.479       .  S
C1566      C1784   1.475       .  S
Fe1567     O1580   2.083       .  S
Fe1567     O1572   2.061       .  S
Fe1567     O1578   1.962       .  S
Fe1568     O1579   2.063       .  S
Fe1568     O1584   2.042       .  S
Fe1568     O1578   1.959       .  S
Fe1569     O1574   2.078       .  S
Fe1569     O1570   2.093       .  S
Fe1569     O1578   1.972       .  S
O1570      C1577   1.272       .  A
O1571      C1585   1.270       .  A
O1572      C1577   1.267       .  A
O1573      C1576   1.271       .  A
O1574      C1586   1.272       .  A
O1575      C1588   1.264       .  A
C1576      O1581   1.272       .  A
C1576      C1627   1.443       .  S
C1577      C1611   1.445       .  S
O1579      C1582   1.269       .  A
O1580      C1582   1.272       .  A
C1582      C1818   1.439       .  S
O1583      C1588   1.266       .  A
O1584      C1586   1.266       .  A
C1585      O1587   1.274       .  A
C1585      C1643   1.483       .  S
C1586      C1602   1.474       .  S
C1588      C1812   1.437       .  S
C1589      C1590   1.543       .  S
C1589      C1595   1.517       .  S
C1589      C1593   1.535       .  S
C1589      C1663   1.516       .  S
C1590      H1597   1.086       .  S
C1590      C1591   1.374       .  D
C1591      C1592   1.533       .  S
C1591      C1605   1.483       .  S
C1592      C1596   1.538       .  S
C1592      C1594   1.552       .  S
C1592      H1598   1.109       .  S
C1593      H1599   1.083       .  S
C1593      C1594   1.371       .  D
C1594      C1617   1.485       .  S
C1595      H1600   1.089       .  S
C1595      C1596   1.350       .  D
C1596      C1677   1.469       .  S
C1601      C1602   1.407       .  A
C1601      C1606   1.386       .  A
C1601      H1607   1.084       .  S
C1602      C1603   1.401       .  A
C1603      C1604   1.405       .  A
C1603      H1608   1.083       .  S
C1604      C1605   1.411       .  A
C1604      H1609   1.082       .  S
C1605      C1606   1.399       .  A
C1606      H1610   1.082       .  S
C1611      C1612   1.213       .  T
C1613      C1614   1.407       .  A
C1613      C1618   1.397       .  A
C1613      H1619   1.083       .  S
C1614      C1615   1.407       .  A
C1615      C1616   1.399       .  A
C1615      H1620   1.083       .  S
C1616      C1617   1.404       .  A
C1616      H1621   1.082       .  S
C1617      C1618   1.404       .  A
C1618      H1622   1.083       .  S
C1623      C1624   1.214       .  T
C1625      C1626   1.212       .  T
C1627      C1628   1.212       .  T
C1629      C1630   1.397       .  A
C1629      C1634   1.386       .  A
C1629      H1635   1.083       .  S
C1630      C1631   1.409       .  A
C1631      C1632   1.406       .  A
C1631      H1636   1.083       .  S
C1632      C1633   1.404       .  A
C1632      H1637   1.083       .  S
C1633      C1634   1.409       .  A
C1634      H1638   1.083       .  S
C1639      C1640   1.404       .  A
C1639      C1644   1.397       .  A
C1639      H1645   1.083       .  S
C1640      C1641   1.405       .  A
C1641      C1642   1.398       .  A
C1641      H1646   1.082       .  S
C1642      C1643   1.406       .  A
C1642      H1647   1.083       .  S
C1643      C1644   1.407       .  A
C1644      H1648   1.083       .  S
C1649      C1650   1.407       .  A
C1649      C1654   1.391       .  A
C1649      H1655   1.081       .  S
C1650      C1651   1.400       .  A
C1651      C1652   1.403       .  A
C1651      H1656   1.083       .  S
C1652      C1653   1.411       .  A
C1652      H1657   1.084       .  S
C1653      C1654   1.396       .  A
C1654      H1658   1.084       .  S
C1659      C1660   1.400       .  A
C1659      C1664   1.384       .  A
C1659      H1665   1.084       .  S
C1660      C1661   1.405       .  A
C1661      C1662   1.402       .  A
C1661      H1666   1.083       .  S
C1662      C1663   1.410       .  A
C1662      H1667   1.079       .  S
C1663      C1664   1.406       .  A
C1664      H1668   1.084       .  S
C1669      C1670   1.209       .  T
C1671      C1672   1.205       .  T
C1673      C1674   1.401       .  A
C1673      C1678   1.405       .  A
C1673      H1679   1.083       .  S
C1674      C1675   1.408       .  A
C1675      C1676   1.391       .  A
C1675      H1680   1.080       .  S
C1676      C1677   1.396       .  A
C1676      H1681   1.084       .  S
C1677      C1678   1.412       .  A
C1678      H1682   1.083       .  S
C1683      C1684   1.400       .  A
C1683      C1688   1.384       .  A
C1683      H1689   1.084       .  S
C1684      C1685   1.404       .  A
C1685      C1686   1.402       .  A
C1685      H1690   1.083       .  S
C1686      C1687   1.410       .  A
C1686      H1691   1.079       .  S
C1687      C1688   1.406       .  A
C1688      H1692   1.084       .  S
C1693      C1694   1.208       .  T
C1695      C1696   1.208       .  T
C1697      C1698   1.213       .  T
C1699      C1700   1.211       .  T
C1701      C1702   1.213       .  T
C1703      C1704   1.212       .  T
C1705      C1706   1.209       .  T
C1707      C1708   1.207       .  T
C1709      C1710   1.404       .  A
C1709      C1714   1.398       .  A
C1710      C1711   1.405       .  A
C1711      C1712   1.396       .  A
C1711      H1716   1.083       .  S
C1712      C1713   1.406       .  A
C1712      H1717   1.083       .  S
C1713      C1714   1.407       .  A
C1714      H1718   1.083       .  S
C1719      C1720   1.212       .  T
C1721      C1722   1.213       .  T
C1723      C1724   1.208       .  T
C1725      C1726   1.208       .  T
C1727      C1728   1.402       .  A
C1727      C1732   1.406       .  A
C1727      H1733   1.083       .  S
C1728      C1729   1.406       .  A
C1729      C1730   1.389       .  A
C1729      H1734   1.084       .  S
C1730      C1731   1.401       .  A
C1730      H1735   1.082       .  S
C1731      C1732   1.411       .  A
C1732      H1736   1.082       .  S
C1737      C1738   1.213       .  T
C1739      C1740   1.212       .  T
C1741      C1742   1.412       .  A
C1741      C1746   1.407       .  A
C1741      H1747   1.082       .  S
C1742      C1743   1.400       .  A
C1743      C1744   1.388       .  A
C1744      C1745   1.406       .  A
C1744      H1749   1.084       .  S
C1745      C1746   1.402       .  A
C1746      H1750   1.083       .  S
C1751      C1752   1.404       .  A
C1751      C1756   1.396       .  A
C1751      H1757   1.083       .  S
C1752      C1753   1.403       .  A
C1753      C1754   1.397       .  A
C1753      H1758   1.082   1_565  S
C1754      C1755   1.407       .  A
C1754      H1759   1.083       .  S
C1755      C1756   1.406       .  A
C1756      H1760   1.083       .  S
C1761      C1762   1.400       .  A
C1761      C1766   1.385       .  A
C1761      H1767   1.084       .  S
C1762      C1763   1.404       .  A
C1763      C1764   1.401       .  A
C1763      H1768   1.083       .  S
C1764      C1765   1.410       .  A
C1764      H1769   1.078       .  S
C1765      C1766   1.406       .  A
C1766      H1770   1.084       .  S
C1771      C1772   1.401       .  A
C1771      C1776   1.404       .  A
C1771      H1777   1.083       .  S
C1772      C1773   1.408       .  A
C1773      C1774   1.392       .  A
C1773      H1778   1.082       .  S
C1774      C1775   1.398       .  A
C1774      H1779   1.084       .  S
C1775      C1776   1.410       .  A
C1776      H1780   1.083       .  S
C1781      C1782   1.213       .  T
C1783      C1784   1.211       .  T
C1785      C1786   1.407       .  A
C1785      C1790   1.392       .  A
C1785      H1791   1.081       .  S
C1786      C1787   1.401       .  A
C1787      C1788   1.405       .  A
C1787      H1792   1.083       .  S
C1788      C1789   1.412       .  A
C1788      H1793   1.083       .  S
C1789      C1790   1.397       .  A
C1790      H1794   1.084       .  S
C1795      C1796   1.403       .  A
C1795      C1800   1.401       .  A
C1795      H1801   1.083       .  S
C1796      C1797   1.401       .  A
C1797      C1798   1.385       .  A
C1797      H1802   1.084       .  S
C1798      C1799   1.406       .  A
C1799      C1800   1.411       .  A
C1800      H1804   1.078       .  S
C1805      C1806   1.212       .  T
C1807      C1808   1.213       .  T
C1809      C1810   1.208       .  T
C1811      C1812   1.208       .  T
C1813      C1814   1.208       .  T
C1815      C1816   1.209       .  T
C1817      C1818   1.209       .  T
C1819      C1820   1.207       .  T
C1821      C1822   1.208       .  T
C1823      C1824   1.206       .  T
