geometry optimzed in LAMMPS
_audit_creation_date              2020-11-30 
_audit_creation_method            'lammps2cif' 
_symmetry_space_group_name_H-M    'P1' 
_symmetry_Int_Tables_number       1 
_symmetry_cell_setting            triclinic 
loop_ 
_symmetry_equiv_pos_as_xyz 
  x,y,z 
_cell_length_a                    38.69909658 
_cell_length_b                    38.66940098521301 
_cell_length_c                    37.325238459126616 
_cell_angle_alpha                 90.35941096665869 
_cell_angle_beta                  89.32872455002827 
_cell_angle_gamma                 89.9756741191889 
loop_ 
_atom_site_label 
_atom_site_type_symbol 
_atom_site_fract_x 
_atom_site_fract_y 
_atom_site_fract_z 
_atom_site_charge 
In1        In  0.43293799  0.09629388  0.34778263     1.36900
C2          C  0.46318110  0.03565573  0.34108822     0.77400
O3          O  0.48183297  0.12002934  0.32790076    -0.61000
O4          O  0.46672931  0.13195937  0.38124124    -0.51900
C5          C  0.40059109  0.10902590  0.28660119     0.70100
O6          O  0.40065106  0.08005251  0.30185634    -0.46800
C7          C  0.38366877  0.08696766  0.39792632     0.74800
O8          O  0.44786699  0.04997295  0.31555994    -0.58700
O9          O  0.40776522  0.06583514  0.39247296    -0.48700
O10         O  0.46489233  0.05353790  0.36933679    -0.55100
C11         C  0.48991980  0.13373571  0.35722124     0.85000
O12         O  0.41472068  0.13297496  0.30450597    -0.57000
O13         O  0.38549974  0.11388728  0.37889251    -0.60300
In14       In  0.69105015  0.09210957  0.34715250     1.36900
C15         C  0.66750894  0.02917165  0.33258889     0.77400
O16         O  0.70362518  0.13506285  0.30843626    -0.61000
O17         O  0.72593886  0.08564345  0.29920035    -0.51900
C18         C  0.63322880  0.12856862  0.35772706     0.70100
O19         O  0.65457200  0.12394309  0.38258761    -0.46800
C20         C  0.73674289  0.08478365  0.40013195     0.74800
O21         O  0.65570831  0.04725063  0.35808328    -0.58700
O22         O  0.73791163  0.10942175  0.37811505    -0.48700
O23         O  0.68999708  0.04409773  0.31365558    -0.55100
C24         C  0.72106950  0.11580499  0.28752791     0.85000
O25         O  0.64269792  0.11641225  0.32787414    -0.57000
O26         O  0.71158300  0.06481461  0.39592538    -0.60300
In27       In  0.68868722  0.81912333  0.34481646     1.36900
C28         C  0.66797714  0.88325885  0.33347476     0.77400
O29         O  0.63908448  0.80046315  0.32257905    -0.61000
O30         O  0.64957617  0.78697500  0.37627866    -0.51900
C31         C  0.71892756  0.79728777  0.28446876     0.70100
O32         O  0.72286410  0.82726481  0.29725445    -0.46800
C33         C  0.73329857  0.82442444  0.39894974     0.74800
O34         O  0.69165039  0.86894315  0.31533408    -0.58700
O35         O  0.70832632  0.84461331  0.39498213    -0.48700
O36         O  0.65414814  0.86425142  0.35682723    -0.55100
C37         C  0.62809337  0.78685515  0.35101405     0.85000
O38         O  0.70198008  0.77700557  0.30452671    -0.57000
O39         O  0.73451595  0.79993173  0.37640670    -0.60300
In40       In  0.42544399  0.82962049  0.34467713     1.36900
C41         C  0.45410197  0.89158747  0.34070698     0.77400
O42         O  0.39373906  0.84567363  0.29823155    -0.61000
O43         O  0.41057922  0.79342581  0.29961732    -0.51900
C44         C  0.48338583  0.79258078  0.35051218     0.70100
O45         O  0.46246560  0.79604330  0.37649155    -0.46800
C46         C  0.37654290  0.83204427  0.39628766     0.74800
O47         O  0.45938403  0.87126764  0.36624720    -0.58700
O48         O  0.37874097  0.80722589  0.37418268    -0.48700
O49         O  0.43492260  0.87975896  0.31655212    -0.55100
C50         C  0.39606413  0.81705012  0.28191537     0.85000
O51         O  0.47294132  0.80533886  0.32173522    -0.57000
O52         O  0.39953904  0.85456832  0.39241742    -0.60300
In53       In  0.69345404  0.82646707  0.07824180     1.36900
C54         C  0.62916253  0.84002598  0.09861397     0.77400
O55         O  0.70955670  0.87773888  0.09948407    -0.61000
O56         O  0.72265184  0.86640145  0.04531291    -0.51900
C57         C  0.72211072  0.79837708  0.13529355     0.70100
O58         O  0.69212770  0.79122733  0.12486916    -0.46800
C59         C  0.68788965  0.78388579  0.02194213     0.74800
O60         O  0.64524215  0.81362144  0.10865867    -0.58700
O61         O  0.66841515  0.80955789  0.02646799    -0.48700
O62         O  0.64639652  0.85989414  0.07868455    -0.55100
C63         C  0.72261024  0.88839543  0.07054193     0.85000
O64         O  0.73934683  0.81725710  0.11408815    -0.57000
O65         O  0.71167846  0.78152694  0.04464311    -0.60300
In66       In  0.42163380  0.83472324  0.06641128     1.36900
C67         C  0.48400927  0.84261653  0.09354866     0.77400
O68         O  0.39829815  0.85245026  0.11808094    -0.61000
O69         O  0.39917393  0.79841339  0.10795216    -0.51900
C70         C  0.39412063  0.89157718  0.03852383     0.70100
O71         O  0.42426715  0.88115561  0.03148776    -0.46800
C72         C  0.42863282  0.78706967  0.01503004     0.74800
O73         O  0.46768461  0.86700277  0.07937428    -0.58700
O74         O  0.40239331  0.78852692  0.03553073    -0.48700
O75         O  0.46784473  0.81447333  0.09479115    -0.55100
C76         C  0.39278843  0.82253533  0.13006396     0.85000
O77         O  0.37618482  0.87064246  0.05677833    -0.57000
O78         O  0.44979681  0.81129484  0.01917649    -0.60300
In79       In  0.42298251  0.09081337  0.07103660     1.36900
C80         C  0.48455931  0.07631860  0.09698088     0.77400
O81         O  0.37716181  0.05609840  0.05902354    -0.61000
O82         O  0.42567025  0.04539634  0.03439935    -0.51900
C83         C  0.39502297  0.10551958  0.13503458     0.70100
O84         O  0.40540367  0.12878865  0.11391940    -0.46800
C85         C  0.42970837  0.13771795  0.01919158     0.74800
O86         O  0.47173099  0.10620482  0.09823654    -0.58700
O87         O  0.45228086  0.11533915  0.02554027    -0.48700
O88         O  0.46518907  0.05355877  0.08391066    -0.55100
C89         C  0.39515761  0.03547370  0.04010494     0.85000
O90         O  0.39598604  0.07544499  0.12181632    -0.57000
O91         O  0.40298249  0.13583911  0.03890605    -0.60300
In92       In  0.69307777  0.09465922  0.07980342     1.36900
C93         C  0.62922542  0.07885867  0.10000523     0.77400
O94         O  0.69211632  0.12927072  0.12768705    -0.61000
O95         O  0.73914003  0.10325149  0.11560418    -0.51900
C96         C  0.72391993  0.03373939  0.07120027     0.70100
O97         O  0.72166889  0.05481061  0.04553417    -0.46800
C98         C  0.68672009  0.13655145  0.02353259     0.74800
O99         O  0.64762139  0.05894546  0.08101072    -0.58700
O100        O  0.71008479  0.14001147  0.04663064    -0.48700
O101        O  0.64386485  0.10651306  0.10911153    -0.55100
C102        C  0.72204253  0.12141195  0.13781905     0.85000
O103        O  0.71228054  0.04496418  0.10065511    -0.57000
O104        O  0.66800623  0.11037317  0.02787843    -0.60300
In105      In  0.92488409  0.32262972  0.34553321     1.36900
C106        C  0.98619139  0.32945838  0.31429271     0.77400
O107        O  0.88266323  0.36005232  0.36299386    -0.61000
O108        O  0.93542200  0.37285514  0.37160849    -0.51900
C109        C  0.89383153  0.30614298  0.28402031     0.70100
O110        O  0.91245285  0.28525786  0.30091471    -0.46800
C111        C  0.92981296  0.27968008  0.40110257     0.74800
O112        O  0.97374118  0.30077358  0.32351114    -0.58700
O113        O  0.95091467  0.30369491  0.39546584    -0.48700
O114        O  0.96658595  0.35491873  0.32000960    -0.55100
C115        C  0.90432017  0.38242234  0.37338297     0.85000
O116        O  0.88779035  0.33394256  0.30079786    -0.57000
O117        O  0.90473708  0.27892430  0.37968983    -0.60300
In118      In  0.92308925  0.58795904  0.34846438     1.36900
C119        C  0.98463171  0.58313229  0.31764528     0.77400
O120        O  0.88980955  0.57436416  0.30131826    -0.61000
O121        O  0.90644666  0.62616535  0.30660897    -0.51900
C122        C  0.90394258  0.52749858  0.37503687     0.70100
O123        O  0.93442045  0.53884363  0.37574029    -0.46800
C124        C  0.92751222  0.63070990  0.40481345     0.74800
O125        O  0.96715082  0.55690609  0.32598519    -0.58700
O126        O  0.90091426  0.62900291  0.38547926    -0.48700
O127        O  0.96965602  0.61150183  0.32343779    -0.55100
C128        C  0.89182206  0.60384565  0.28724835     0.85000
O129        O  0.88195424  0.54847519  0.36277244    -0.57000
O130        O  0.95063288  0.60926359  0.39663399    -0.60300
In131      In  0.19259305  0.32898640  0.34046353     1.36900
C132        C  0.13026872  0.33219735  0.31239033     0.77400
O133        O  0.21566051  0.34465116  0.28778768    -0.61000
O134        O  0.21638953  0.29130875  0.30013366    -0.51900
C135        C  0.21406805  0.38728793  0.37172824     0.70100
O136        O  0.23500595  0.36749740  0.35522607    -0.46800
C137        C  0.18793828  0.28388470  0.39418867     0.74800
O138        O  0.14804740  0.35889166  0.31800922    -0.58700
O139        O  0.21381376  0.28492580  0.37309909    -0.48700
O140        O  0.14485953  0.30433652  0.32051957    -0.55100
C141        C  0.22175677  0.31433440  0.27688330     0.85000
O142        O  0.18373511  0.37579124  0.37376105    -0.57000
O143        O  0.16578398  0.30700866  0.38896946    -0.60300
In144      In  0.19052811  0.58857024  0.34842933     1.36900
C145        C  0.12911571  0.58209100  0.31867582     0.77400
O146        O  0.23403783  0.55269499  0.36414077    -0.61000
O147        O  0.18251655  0.54093605  0.38010671    -0.51900
C148        C  0.22169637  0.60093769  0.28573620     0.70100
O149        O  0.20959375  0.62473021  0.30545555    -0.46800
C150        C  0.18497207  0.63435116  0.40188939     0.74800
O151        O  0.14380238  0.61075316  0.32316185    -0.58700
O152        O  0.16313656  0.61091880  0.39670439    -0.48700
O153        O  0.14656191  0.55638969  0.32831191    -0.55100
C154        C  0.21358076  0.53119328  0.37852607     0.85000
O155        O  0.22129389  0.57149576  0.30005381    -0.57000
O156        O  0.21079766  0.63341378  0.38080783    -0.60300
In157      In  0.92503853  0.32724353  0.07018655     1.36900
C158        C  0.95338903  0.38935789  0.07559548     0.77400
O159        O  0.97514568  0.30657672  0.08948052    -0.61000
O160        O  0.95874601  0.28949556  0.03840935    -0.51900
C161        C  0.89500481  0.31030283  0.13248341     0.70100
O162        O  0.89205202  0.33972375  0.11837944    -0.46800
C163        C  0.87754803  0.33278847  0.01864441     0.74800
O164        O  0.93383228  0.37680276  0.09941705    -0.58700
O165        O  0.90181773  0.35382871  0.02266606    -0.48700
O166        O  0.95896373  0.36974666  0.04909282    -0.55100
C167        C  0.98219551  0.28937522  0.06167602     0.85000
O168        O  0.91084540  0.28845143  0.11303283    -0.57000
O169        O  0.87776321  0.30796640  0.04048312    -0.60300
In170      In  0.92943412  0.59451816  0.07405145     1.36900
C171        C  0.95936297  0.53345480  0.07730273     0.77400
O172        O  0.89630676  0.57905994  0.12074682    -0.61000
O173        O  0.91188097  0.63154173  0.11757033    -0.51900
C174        C  0.98676863  0.63214966  0.06828283     0.70100
O175        O  0.96442952  0.63205177  0.04384016    -0.46800
C176        C  0.88166288  0.58781079  0.02315124     0.74800
O177        O  0.96277026  0.55275875  0.05041664    -0.58700
O178        O  0.88345964  0.61421781  0.04319054    -0.48700
O179        O  0.94202690  0.54633221  0.10290728    -0.55100
C180        C  0.89729359  0.60827028  0.13595442     0.85000
O181        O  0.97799378  0.61581532  0.09589557    -0.57000
O182        O  0.90478831  0.56578023  0.02834390    -0.60300
In183      In  0.18591421  0.58705075  0.07329196     1.36900
C184        C  0.15751075  0.52488019  0.07915635     0.77400
O185        O  0.13799837  0.61071620  0.09596988    -0.61000
O186        O  0.15080641  0.62341217  0.04244217    -0.51900
C187        C  0.21809371  0.60058420  0.13440735     0.70100
O188        O  0.21942829  0.57165004  0.11866676    -0.46800
C189        C  0.23441593  0.58386409  0.02165047     0.74800
O190        O  0.17577783  0.53828600  0.10322283    -0.58700
O191        O  0.21103051  0.56164383  0.02512553    -0.48700
O192        O  0.15281226  0.54391080  0.05237599    -0.55100
C193        C  0.12924598  0.62608983  0.06795031     0.85000
O194        O  0.20270033  0.62385606  0.11704239    -0.57000
O195        O  0.23242651  0.60860786  0.04379970    -0.60300
In196      In  0.18352873  0.31928810  0.06455909     1.36900
C197        C  0.15388617  0.38013301  0.07578678     0.77400
O198        O  0.21496215  0.33572832  0.11111512    -0.61000
O199        O  0.20339702  0.28217000  0.10641267    -0.51900
C200        C  0.12595125  0.28189838  0.05592549     0.70100
O201        O  0.14573624  0.28910034  0.02994183    -0.46800
C202        C  0.23280282  0.32773773  0.01400350     0.74800
O203        O  0.15160689  0.36416377  0.04640370    -0.58700
O204        O  0.23109687  0.30116669  0.03353976    -0.48700
O205        O  0.16953666  0.36388819  0.09970527    -0.55100
C206        C  0.21593728  0.30626586  0.12543003     0.85000
O207        O  0.13808768  0.28976012  0.08593448    -0.57000
O208        O  0.20867931  0.34888470  0.01927704    -0.60300
In209      In  0.42027933  0.81979098  0.57038338     1.36900
C210        C  0.44476449  0.88146727  0.58829956     0.77400
O211        O  0.46665450  0.79034864  0.58796562    -0.61000
O212        O  0.45906717  0.79483855  0.53217233    -0.51900
C213        C  0.39102119  0.79588892  0.62996746     0.70100
O214        O  0.38714460  0.82649296  0.61922412    -0.46800
C215        C  0.37450560  0.82765809  0.51771289     0.74800
O216        O  0.42001755  0.86730604  0.60463185    -0.58700
O217        O  0.39768377  0.84933008  0.52430922    -0.48700
O218        O  0.45819558  0.86319511  0.56387525    -0.55100
C219        C  0.47861944  0.78500761  0.55694181     0.85000
O220        O  0.40700134  0.77627474  0.60812566    -0.57000
O221        O  0.37499765  0.80133985  0.53755421    -0.60300
In222      In  0.68148023  0.81985500  0.57040803     1.36900
C223        C  0.65736632  0.88248549  0.58417577     0.77400
O224        O  0.71910694  0.82939484  0.61377321    -0.61000
O225        O  0.69402203  0.78055148  0.61292823    -0.51900
C226        C  0.62298483  0.78568068  0.55805634     0.70100
O227        O  0.63221816  0.79517193  0.58875904    -0.46800
C228        C  0.72953626  0.82643968  0.51919529     0.74800
O229        O  0.65210377  0.86695296  0.55505471    -0.58700
O230        O  0.72698505  0.79966496  0.53836167    -0.48700
O231        O  0.67302027  0.86492488  0.60709545    -0.55100
C232        C  0.71327397  0.80133993  0.62979899     0.85000
O233        O  0.64536091  0.79051808  0.53375807    -0.57000
O234        O  0.70671583  0.84883426  0.52516194    -0.60300
In235      In  0.42417648  0.09023787  0.57242896     1.36900
C236        C  0.44358829  0.02645091  0.58815740     0.77400
O237        O  0.41554234  0.13332816  0.61309366    -0.61000
O238        O  0.39005390  0.08529466  0.62063450    -0.51900
C239        C  0.48535681  0.12129743  0.56435265     0.70100
O240        O  0.46549731  0.11657352  0.53810796    -0.46800
C241        C  0.37943227  0.08559297  0.51795202     0.74800
O242        O  0.46009137  0.04498002  0.56632491    -0.58700
O243        O  0.37833971  0.10987480  0.54079316    -0.48700
O244        O  0.41752982  0.04081337  0.60206249    -0.55100
C245        C  0.39778053  0.11437205  0.63381316     0.85000
O246        O  0.47242918  0.11289863  0.59408333    -0.57000
O247        O  0.40430395  0.06522583  0.52184992    -0.60300
In248      In  0.69120724  0.08998353  0.57603530     1.36900
C249        C  0.66640331  0.02750117  0.58741638     0.77400
O250        O  0.64105172  0.10977913  0.59756609    -0.61000
O251        O  0.65354613  0.12230962  0.54385972    -0.51900
C252        C  0.72125712  0.11108107  0.63602434     0.70100
O253        O  0.72602363  0.08143577  0.62250575    -0.46800
C254        C  0.73731339  0.08280390  0.52210995     0.74800
O255        O  0.68599232  0.04253047  0.60924331    -0.58700
O256        O  0.71393708  0.06118933  0.52837634    -0.48700
O257        O  0.65897934  0.04497610  0.56022791    -0.55100
C258        C  0.63116010  0.12295871  0.56877796     0.85000
O259        O  0.70429157  0.13147591  0.61650052    -0.57000
O260        O  0.73664462  0.10889950  0.54270619    -0.60300
In261      In  0.42503617  0.81770139  0.83650880     1.36900
C262        C  0.48786931  0.83616220  0.81564356     0.77400
O263        O  0.40534040  0.86762969  0.81593859    -0.61000
O264        O  0.39665580  0.85710000  0.87102995    -0.51900
C265        C  0.39590210  0.78905377  0.77942431     0.70100
O266        O  0.42484208  0.77951037  0.79100400    -0.46800
C267        C  0.43205628  0.77701549  0.89393315     0.74800
O268        O  0.47352114  0.80886500  0.80487228    -0.58700
O269        O  0.45313622  0.80057509  0.88628868    -0.48700
O270        O  0.46957805  0.85439741  0.83642082    -0.55100
C271        C  0.39431031  0.87859513  0.84576916     0.85000
O272        O  0.37988581  0.80983724  0.79989983    -0.57000
O273        O  0.40659381  0.77514032  0.87312935    -0.60300
In274      In  0.69483399  0.82787821  0.84513556     1.36900
C275        C  0.63194264  0.83920146  0.82145365     0.77400
O276        O  0.71493361  0.84163083  0.79082948    -0.61000
O277        O  0.71288663  0.78836244  0.80415118    -0.51900
C278        C  0.72757240  0.88413476  0.86678049     0.70100
O279        O  0.69757173  0.87622798  0.87714498    -0.46800
C280        C  0.68920386  0.78376111  0.89969705     0.74800
O281        O  0.65054956  0.86307828  0.83359379    -0.58700
O282        O  0.71368566  0.78227635  0.87698029    -0.48700
O283        O  0.64563598  0.80971266  0.82144569    -0.55100
C284        C  0.71896094  0.81081639  0.78044643     0.85000
O285        O  0.74298211  0.86087271  0.84883277    -0.57000
O286        O  0.66910400  0.80889690  0.89570466    -0.60300
In287      In  0.69658105  0.08685482  0.84803744     1.36900
C288        C  0.63341153  0.06662931  0.83270371     0.77400
O289        O  0.71745381  0.03602935  0.82923145    -0.61000
O290        O  0.72788670  0.05116812  0.88281206    -0.51900
C291        C  0.72082013  0.11369351  0.78717759     0.70100
O292        O  0.69141909  0.12074105  0.80005309    -0.46800
C293        C  0.68824124  0.13228000  0.90184790     0.74800
O294        O  0.64783955  0.09237916  0.81866643    -0.58700
O295        O  0.66818667  0.10722195  0.89721061    -0.48700
O296        O  0.65198040  0.05006940  0.85414243    -0.55100
C297        C  0.73011076  0.02791151  0.85892776     0.85000
O298        O  0.73964028  0.09604382  0.80762508    -0.57000
O299        O  0.71385660  0.13280115  0.88050991    -0.60300
In300      In  0.42363182  0.08585601  0.84609686     1.36900
C301        C  0.48780466  0.06594221  0.83352425     0.77400
O302        O  0.43083099  0.11845434  0.79725323    -0.61000
O303        O  0.38110203  0.09698649  0.80693548    -0.51900
C304        C  0.39265337  0.02435759  0.85056411     0.70100
O305        O  0.39284581  0.04509475  0.87694237    -0.46800
C306        C  0.42806176  0.13294343  0.89925855     0.74800
O307        O  0.46921296  0.05184913  0.85717092    -0.58700
O308        O  0.40346493  0.13245429  0.87729326    -0.48700
O309        O  0.47308649  0.08947937  0.81623879    -0.55100
C310        C  0.40085965  0.11304846  0.78550922     0.85000
O311        O  0.40601294  0.03627337  0.82242286    -0.57000
O312        O  0.44855989  0.10799445  0.89576403    -0.60300
C313        C  0.30103446  0.09263937  0.45559445     0.86300
C314        C  0.29512150  0.05296651  0.45579462    -0.53900
C315        C  0.32499341  0.03367156  0.45634132     0.09300
C316        C  0.35821812  0.05626228  0.45678273     0.20200
C317        C  0.32355198  0.09916718  0.48876232    -0.54600
C318        C  0.35358238  0.08086055  0.48928829     0.09400
C319        C  0.32547448  0.09868635  0.42347665    -0.54200
C320        C  0.35553405  0.08059291  0.42427605     0.09900
H321        H  0.27017717  0.04048690  0.45567401     0.14400
H322        H  0.38263487  0.04119456  0.45738856     0.00200
H323        H  0.31660985  0.11763760  0.50969532     0.14700
H324        H  0.32001045  0.11723403  0.40252612     0.14500
C325        C  0.19526607  0.20378250  0.45409748     0.86300
C326        C  0.15560556  0.19767107  0.45435874    -0.53900
C327        C  0.13599831  0.22751293  0.45475430     0.09300
C328        C  0.15874095  0.26082553  0.45489228     0.20200
C329        C  0.20175173  0.22733306  0.42169187    -0.54600
C330        C  0.18331643  0.25727486  0.42216582     0.09400
C331        C  0.20116928  0.22688743  0.48699190    -0.54200
C332        C  0.18322760  0.25705397  0.48710788     0.09900
H333        H  0.14378092  0.17230092  0.45422081     0.14400
H334        H  0.14385489  0.28535973  0.45552370     0.00200
H335        H  0.22012205  0.22103536  0.40039793     0.14700
H336        H  0.21939162  0.22044883  0.50786664     0.14500
C337        C  0.92349834  0.20056030  0.46230822     0.86300
C338        C  0.96325364  0.19454997  0.46075110    -0.53900
C339        C  0.98274744  0.22454833  0.46034764     0.09300
C340        C  0.95989023  0.25770016  0.46121620     0.20200
C341        C  0.91823682  0.22375989  0.49539467    -0.54600
C342        C  0.93621934  0.25392010  0.49460133     0.09400
C343        C  0.91638838  0.22394667  0.43019106    -0.54200
C344        C  0.93474990  0.25384033  0.42960547     0.09900
H345        H  0.97504783  0.16917150  0.45968648     0.14400
H346        H  0.97475203  0.28225426  0.46088524     0.00200
H347        H  0.90067069  0.21726548  0.51725556     0.14700
H348        H  0.89768240  0.21745889  0.40972300     0.14500
C349        C  0.81675769  0.08994796  0.45991780     0.86300
C350        C  0.82205295  0.04999806  0.45839240    -0.53900
C351        C  0.79177106  0.03098223  0.45825479     0.09300
C352        C  0.75905600  0.05433203  0.45996415     0.20200
C353        C  0.79310264  0.09748045  0.42815554    -0.54600
C354        C  0.76296916  0.07943607  0.42810833     0.09400
C355        C  0.79376036  0.09549006  0.49333037    -0.54200
C356        C  0.76351677  0.07775265  0.49331563     0.09900
H357        H  0.84695109  0.03743010  0.45871792     0.14400
H358        H  0.73427403  0.03988520  0.45985601     0.00200
H359        H  0.79955097  0.11628153  0.40761288     0.14700
H360        H  0.80053503  0.11309046  0.51495405     0.14500
C361        C  0.92084533  0.71085811  0.46576808     0.86300
C362        C  0.96060798  0.71615205  0.46493586    -0.53900
C363        C  0.97961333  0.68597253  0.46492129     0.09300
C364        C  0.95650500  0.65312756  0.46571472     0.20200
C365        C  0.91408212  0.68692593  0.43357436    -0.54600
C366        C  0.93196424  0.65671762  0.43358793     0.09400
C367        C  0.91446810  0.68804193  0.49878211    -0.54200
C368        C  0.93254101  0.65784816  0.49879760     0.09900
H369        H  0.97327524  0.74097754  0.46389607     0.14400
H370        H  0.97100036  0.62837416  0.46598207     0.00200
H371        H  0.89602368  0.69332745  0.41253322     0.14700
H372        H  0.89645055  0.69506065  0.52016635     0.14500
C373        C  0.81137902  0.81830242  0.46121037     0.86300
C374        C  0.81760809  0.85802011  0.46017608    -0.53900
C375        C  0.78776394  0.87766713  0.45930970     0.09300
C376        C  0.75455144  0.85496845  0.45921538     0.20200
C377        C  0.78714642  0.81325394  0.49357267    -0.54600
C378        C  0.75723014  0.83142782  0.49227424     0.09400
C379        C  0.78898980  0.81114847  0.42825773    -0.54200
C380        C  0.75913566  0.82962599  0.42735404     0.09900
H381        H  0.84298761  0.86979240  0.46057449     0.14400
H382        H  0.73004065  0.86979746  0.45813329     0.00200
H383        H  0.79278866  0.79566616  0.51533731     0.14700
H384        H  0.79586719  0.79218764  0.40777357     0.14500
C385        C  0.29531217  0.82349955  0.45666905     0.86300
C386        C  0.29048906  0.86308294  0.45836231    -0.53900
C387        C  0.32071819  0.88166017  0.45883659     0.09300
C388        C  0.35322363  0.85838796  0.45792279     0.20200
C389        C  0.31923639  0.81696676  0.42378751    -0.54600
C390        C  0.34944089  0.83516149  0.42443558     0.09400
C391        C  0.31879867  0.81464417  0.48833833    -0.54200
C392        C  0.34870464  0.83303512  0.48941992     0.09900
H393        H  0.26520048  0.87520952  0.45817399     0.14400
H394        H  0.37790225  0.87301727  0.45864158     0.00200
H395        H  0.31361774  0.79880539  0.40237273     0.14700
H396        H  0.31290894  0.79473736  0.50782679     0.14500
C397        C  0.18967161  0.71651794  0.45993567     0.86300
C398        C  0.15006327  0.72050411  0.46064048    -0.53900
C399        C  0.13201009  0.68995512  0.46246941     0.09300
C400        C  0.15604365  0.65780936  0.46276816     0.20200
C401        C  0.19806418  0.69433104  0.49299608    -0.54600
C402        C  0.18076358  0.66361184  0.49450279     0.09400
C403        C  0.19770085  0.69165357  0.42855351    -0.54200
C404        C  0.18000782  0.66131884  0.42964153     0.09900
H405        H  0.13756301  0.74558293  0.45934576     0.14400
H406        H  0.14206775  0.63276490  0.46396969     0.00200
H407        H  0.21706184  0.70153336  0.51285939     0.14700
H408        H  0.21691741  0.69661659  0.40787172     0.14500
C409        C  0.80236647  0.59617751  0.96318688     0.86300
C410        C  0.79571636  0.55663480  0.96219577    -0.53900
C411        C  0.82535077  0.53676503  0.96178714     0.09300
C412        C  0.85885391  0.55899202  0.96271761     0.20200
C413        C  0.82508865  0.60154698  0.99621944    -0.54600
C414        C  0.85483398  0.58290655  0.99576640     0.09400
C415        C  0.82634327  0.60256778  0.93088103    -0.54200
C416        C  0.85610488  0.58402389  0.93088193     0.09900
H417        H  0.77023956  0.54510776  0.96140732     0.14400
H418        H  0.88323962  0.54392509  0.96288138     0.00200
H419        H  0.81867250  0.61964319  0.01766899     0.14700
H420        H  0.82064766  0.62133830  0.91020948     0.14500
C421        C  0.69390124  0.70411055  0.96062252     0.86300
C422        C  0.65411122  0.69931755  0.96054543    -0.53900
C423        C  0.63564847  0.72979777  0.96045259     0.09300
C424        C  0.65917247  0.76235447  0.96058445     0.20200
C425        C  0.70135605  0.72725519  0.92806721    -0.54600
C426        C  0.68387107  0.75776470  0.92812065     0.09400
C427        C  0.70019072  0.72743887  0.99332228    -0.54200
C428        C  0.68287600  0.75797802  0.99320790     0.09900
H429        H  0.64100392  0.67468394  0.96057567     0.14400
H430        H  0.64494461  0.78726897  0.96091330     0.00200
H431        H  0.71975105  0.72025539  0.90702067     0.14700
H432        H  0.71779624  0.72052106  0.01460272     0.14500
C433        C  0.69316356  0.21388331  0.96010021     0.86300
C434        C  0.65350182  0.21960888  0.96021265    -0.53900
C435        C  0.63421189  0.18954762  0.96119390     0.09300
C436        C  0.65732642  0.15645597  0.96203159     0.20200
C437        C  0.69939917  0.19183110  0.99337156    -0.54600
C438        C  0.68147752  0.16163751  0.99435248     0.09400
C439        C  0.69965548  0.18966746  0.92811472    -0.54200
C440        C  0.68197899  0.15942454  0.92926361     0.09900
H441        H  0.64150770  0.24489566  0.95971035     0.14400
H442        H  0.64288686  0.13169005  0.96247285     0.00200
H443        H  0.71739473  0.19928807  0.01417314     0.14700
H444        H  0.71786083  0.19565922  0.90664413     0.14500
C445        C  0.79871059  0.32500338  0.95713738     0.86300
C446        C  0.79250952  0.36470149  0.95778782    -0.53900
C447        C  0.82223684  0.38425113  0.95876240     0.09300
C448        C  0.85548788  0.36186795  0.95852722     0.20200
C449        C  0.82299402  0.31924075  0.92468568    -0.54600
C450        C  0.85278244  0.33785221  0.92554424     0.09400
C451        C  0.82154127  0.31852473  0.98997588    -0.54200
C452        C  0.85128106  0.33720390  0.99057607     0.09900
H453        H  0.76750627  0.37688644  0.95678549     0.14400
H454        H  0.87982978  0.37703426  0.95921989     0.00200
H455        H  0.81748944  0.30091194  0.90331257     0.14700
H456        H  0.81502228  0.29986426  0.01062667     0.14500
C457        C  0.31603628  0.59464104  0.96320755     0.86300
C458        C  0.32303288  0.55508489  0.96280442    -0.53900
C459        C  0.29358499  0.53500211  0.96138663     0.09300
C460        C  0.25996606  0.55690772  0.96100342     0.20200
C461        C  0.29389681  0.60047970  0.92992909    -0.54600
C462        C  0.26425023  0.58177845  0.92909151     0.09400
C463        C  0.29131391  0.60012807  0.99527312    -0.54200
C464        C  0.26197007  0.58082174  0.99410884     0.09900
H465        H  0.34856520  0.54379606  0.96402698     0.14400
H466        H  0.23585939  0.54139619  0.95990653     0.00200
H467        H  0.30065331  0.61895709  0.90918721     0.14700
H468        H  0.29642772  0.61837342  0.01682863     0.14500
C469        C  0.42495932  0.70242004  0.96114919     0.86300
C470        C  0.46472413  0.69747505  0.96236012    -0.53900
C471        C  0.48342249  0.72777970  0.96055043     0.09300
C472        C  0.46009785  0.76026414  0.95694568     0.20200
C473        C  0.41721122  0.72836344  0.99151524    -0.54600
C474        C  0.43471840  0.75869287  0.98910986     0.09400
C475        C  0.41923522  0.72286605  0.92653324    -0.54200
C476        C  0.43694232  0.75314160  0.92431007     0.09900
H477        H  0.47752248  0.67275756  0.96363905     0.14400
H478        H  0.47448604  0.78505069  0.95531220     0.00200
H479        H  0.39850913  0.72336415  0.01281079     0.14700
H480        H  0.40162425  0.71437211  0.90578899     0.14500
C481        C  0.31589840  0.32373006  0.95621179     0.86300
C482        C  0.32124927  0.36321384  0.95771286    -0.53900
C483        C  0.29137275  0.38241504  0.95754428     0.09300
C484        C  0.25837828  0.35952146  0.95587228     0.20200
C485        C  0.29079577  0.31541016  0.98737849    -0.54600
C486        C  0.26088690  0.33399557  0.98746190     0.09400
C487        C  0.29339586  0.31743034  0.92295336    -0.54200
C488        C  0.26344380  0.33593011  0.92263942     0.09900
H489        H  0.34672018  0.37488187  0.95898576     0.14400
H490        H  0.23380948  0.37432764  0.95545349     0.00200
H491        H  0.29528152  0.29519633  0.00678338     0.14700
H492        H  0.29956852  0.29874806  0.90203872     0.14500
C493        C  0.42251003  0.21608840  0.95667544     0.86300
C494        C  0.46203507  0.22144808  0.95542662    -0.53900
C495        C  0.48130934  0.19153748  0.95614472     0.09300
C496        C  0.45835773  0.15862316  0.95792375     0.20200
C497        C  0.41459652  0.19078563  0.92572042    -0.54600
C498        C  0.43324211  0.16089883  0.92610991     0.09400
C499        C  0.41581800  0.19369655  0.99013990    -0.54200
C500        C  0.43443520  0.16380416  0.99084758     0.09900
H501        H  0.47348517  0.24704612  0.95543514     0.14400
H502        H  0.47313645  0.13402037  0.95833592     0.00200
H503        H  0.39465026  0.19507966  0.90609123     0.14700
H504        H  0.39688627  0.19994121  0.01086256     0.14500
In505      In  0.19665599  0.32922037  0.56838833     1.36900
C506        C  0.13302274  0.34773548  0.58628182     0.77400
O507        O  0.22312345  0.37660595  0.58824525    -0.61000
O508        O  0.22232386  0.36871347  0.53205778    -0.51900
C509        C  0.21936858  0.30112824  0.62886196     0.70100
O510        O  0.18855574  0.29972342  0.61863341    -0.46800
C511        C  0.18947550  0.28396764  0.51460754     0.74800
O512        O  0.14620962  0.31899718  0.59347374    -0.58700
O513        O  0.17064036  0.31019053  0.51818796    -0.48700
O514        O  0.15285724  0.36820025  0.56984901    -0.55100
C515        C  0.22990705  0.38867497  0.55771453     0.85000
O516        O  0.24000785  0.31475199  0.60646962    -0.57000
O517        O  0.21387244  0.28234798  0.53677474    -0.60300
In518      In  0.19507554  0.59259448  0.57671770     1.36900
C519        C  0.13241219  0.57038565  0.59471606     0.77400
O520        O  0.23874904  0.60054041  0.61600496    -0.61000
O521        O  0.19151430  0.62694450  0.62528799    -0.51900
C522        C  0.22849492  0.53349567  0.56323591     0.70100
O523        O  0.22363848  0.55553647  0.53891746    -0.46800
C524        C  0.18702150  0.63776583  0.52292067     0.74800
O525        O  0.15171930  0.55417167  0.57313166    -0.58700
O526        O  0.21226444  0.63908453  0.54408830    -0.48700
O527        O  0.14566601  0.59729116  0.60772470    -0.55100
C528        C  0.22075372  0.61893056  0.63724814     0.85000
O529        O  0.21859255  0.54313642  0.59392926    -0.57000
O530        O  0.16716462  0.61262354  0.52822464    -0.60300
In531      In  0.92307111  0.58779197  0.58260760     1.36900
C532        C  0.98701558  0.56816005  0.59795184     0.77400
O533        O  0.90286561  0.53701052  0.60161861    -0.61000
O534        O  0.89124860  0.55125142  0.54839111    -0.51900
C535        C  0.89841694  0.61729792  0.64233991     0.70100
O536        O  0.92765493  0.62431521  0.62903157    -0.46800
C537        C  0.92833791  0.63224599  0.52786513     0.74800
O538        O  0.97096899  0.59126330  0.61514639    -0.58700
O539        O  0.94911756  0.60776789  0.53229113    -0.48700
O540        O  0.96978220  0.55410007  0.57343925    -0.55100
C541        C  0.88953847  0.52835333  0.57230670     0.85000
O542        O  0.88012837  0.59774132  0.62300260    -0.57000
O543        O  0.90397181  0.63333498  0.55064615    -0.60300
In544      In  0.92433515  0.32599252  0.57646675     1.36900
C545        C  0.98767934  0.34673739  0.59125421     0.77400
O546        O  0.92984959  0.29332150  0.62508937    -0.61000
O547        O  0.88044432  0.31488980  0.61532215    -0.51900
C548        C  0.88995316  0.38479320  0.56800318     0.70100
O549        O  0.89438355  0.36381143  0.54222517    -0.46800
C550        C  0.93100046  0.28064793  0.52257505     0.74800
O551        O  0.97412613  0.31999517  0.60430570    -0.58700
O552        O  0.90638921  0.27970901  0.54506685    -0.48700
O553        O  0.96814442  0.36391411  0.57135018    -0.55100
C554        C  0.89956596  0.29857736  0.63663847     0.85000
O555        O  0.90142864  0.37451881  0.59747971    -0.57000
O556        O  0.95089070  0.30598877  0.52626578    -0.60300
In557      In  0.92974280  0.59748338  0.85072041     1.36900
C558        C  0.95302905  0.53477968  0.83595630     0.77400
O559        O  0.97912009  0.61823460  0.82952399    -0.61000
O560        O  0.96726573  0.62990641  0.88376026    -0.51900
C561        C  0.89875383  0.61985735  0.79211675     0.70100
O562        O  0.89394169  0.59015907  0.80501742    -0.46800
C563        C  0.88337958  0.58979443  0.90363062     0.74800
O564        O  0.93182205  0.55021218  0.81638008    -0.58700
O565        O  0.90794402  0.56911720  0.89857773    -0.48700
O566        O  0.96316470  0.55205774  0.86252697    -0.55100
C567        C  0.98908638  0.63166366  0.85835276     0.85000
O568        O  0.91680893  0.63969301  0.81142979    -0.57000
O569        O  0.88370711  0.61563543  0.88310054    -0.60300
In570      In  0.92937285  0.32701183  0.84704673     1.36900
C571        C  0.95373562  0.38968481  0.83508750     0.77400
O572        O  0.91495996  0.28468295  0.80793829    -0.61000
O573        O  0.89923157  0.33623322  0.79738464    -0.51900
C574        C  0.98890165  0.29351162  0.85679873     0.70100
O575        O  0.96786148  0.29910543  0.88229944    -0.46800
C576        C  0.88052332  0.33321729  0.89835153     0.74800
O577        O  0.96494726  0.37095068  0.85983640    -0.58700
O578        O  0.88300704  0.30697309  0.87819264    -0.48700
O579        O  0.93112914  0.37566086  0.81588682    -0.55100
C580        C  0.90085803  0.30536837  0.78638424     0.85000
O581        O  0.97783118  0.30205162  0.82656838    -0.57000
O582        O  0.90367915  0.35535581  0.89327602    -0.60300
In583      In  0.19324610  0.32634858  0.83959017     1.36900
C584        C  0.17155865  0.38938277  0.82361225     0.77400
O585        O  0.14403422  0.30251215  0.82141678    -0.61000
O586        O  0.15567202  0.29823913  0.87655346    -0.51900
C587        C  0.22100058  0.30146323  0.77909106     0.70100
O588        O  0.22953978  0.33016610  0.79252822    -0.46800
C589        C  0.23775344  0.33153596  0.89387720     0.74800
O590        O  0.19841759  0.37630979  0.80994993    -0.58700
O591        O  0.21285767  0.35191437  0.88997322    -0.48700
O592        O  0.15544101  0.36985426  0.84472173    -0.55100
C593        C  0.13391539  0.29324131  0.85206366     0.85000
O594        O  0.20101905  0.28372101  0.79873107    -0.57000
O595        O  0.23911322  0.30740001  0.87092941    -0.60300
In596      In  0.19252110  0.59570047  0.84848693     1.36900
C597        C  0.16885804  0.53377063  0.83069002     0.77400
O598        O  0.22677984  0.58681909  0.80075806    -0.61000
O599        O  0.20747375  0.63766766  0.80921157    -0.51900
C600        C  0.13371220  0.63123788  0.85875261     0.70100
O601        O  0.15376333  0.62490980  0.88433373    -0.46800
C602        C  0.23811556  0.58742905  0.90117517     0.74800
O603        O  0.19217293  0.54916232  0.81343594    -0.58700
O604        O  0.23889632  0.61285193  0.88009228    -0.48700
O605        O  0.15659006  0.55068823  0.85681081    -0.55100
C606        C  0.22342304  0.61691040  0.78844151     0.85000
O607        O  0.14547443  0.62211494  0.82860929    -0.57000
O608        O  0.21321792  0.56724263  0.89637905    -0.60300
C609        C  0.16168677  0.42557178  0.81826402    -0.05600
C610        C  0.14105003  0.44190983  0.84447377    -0.33100
C611        C  0.14012514  0.47791398  0.84696659     0.36200
C612        C  0.15964557  0.49775713  0.82258483    -0.06000
C613        C  0.17587362  0.48136165  0.79320345    -0.33000
C614        C  0.17701630  0.44540856  0.79091403     0.36100
H615        H  0.12822335  0.42691581  0.86513595     0.16500
O616        O  0.12228924  0.49319233  0.87483831    -0.60400
H617        H  0.19014292  0.49628901  0.77350756     0.16500
O618        O  0.19553766  0.43012762  0.76353930    -0.60500
H619        H  0.17799101  0.42250005  0.74597752     0.43500
H620        H  0.13725893  0.49055949  0.89604542     0.43400
C621        C  0.02505452  0.28185483  0.86132338    -0.05600
C622        C  0.04268780  0.26771546  0.83159595    -0.33100
C623        C  0.07881492  0.26726543  0.83012444     0.36200
C624        C  0.09796955  0.28151007  0.85846609    -0.06000
C625        C  0.08047869  0.29162990  0.89003482    -0.33000
C626        C  0.04418471  0.29173425  0.89167802     0.36100
H627        H  0.02846894  0.25949027  0.80819956     0.16500
O628        O  0.09508272  0.25579184  0.79944712    -0.60400
H629        H  0.09475070  0.30270944  0.91210769     0.16500
O630        O  0.02797027  0.30569902  0.92124663    -0.60500
H631        H  0.01972026  0.28555301  0.93521035     0.43500
H632        H  0.09942020  0.23084472  0.80347135     0.43400
C633        C  0.02487264  0.64475255  0.86181156    -0.05600
C634        C  0.04233516  0.64176219  0.89447341    -0.33100
C635        C  0.07874602  0.64138573  0.89510549     0.36200
C636        C  0.09778975  0.64438353  0.86274720    -0.06000
C637        C  0.08007418  0.65277170  0.83136661    -0.33000
C638        C  0.04405667  0.65285967  0.83066277     0.36100
H639        H  0.02800898  0.63610206  0.91884693     0.16500
O640        O  0.09520278  0.63524780  0.92680260    -0.60400
H641        H  0.09411039  0.65611660  0.80633165     0.16500
O642        O  0.02802418  0.65728066  0.79841924    -0.60500
H643        H  0.01952495  0.68145489  0.79884680     0.43500
H644        H  0.09177499  0.61028564  0.93162433     0.43400
C645        C  0.96263221  0.49843044  0.83026444    -0.05600
C646        C  0.97927827  0.48072477  0.85785687    -0.33100
C647        C  0.97968715  0.44464985  0.85827016     0.36200
C648        C  0.96348987  0.42606885  0.83057629    -0.06000
C649        C  0.95106806  0.44384899  0.80072177    -0.33000
C650        C  0.95065504  0.47984024  0.80032075     0.36100
H651        H  0.98945835  0.49467467  0.88068123     0.16500
O652        O  0.99360237  0.42803696  0.88710782    -0.60400
H653        H  0.93932964  0.42990128  0.77872679     0.16500
O654        O  0.93582063  0.49632380  0.77192550    -0.60500
H655        H  0.95547744  0.50388934  0.75658885     0.43500
H656        H  0.97555949  0.42913967  0.90617861     0.43400
C657        C  0.89072947  0.29559083  0.74952889    -0.05600
C658        C  0.90918918  0.26930365  0.73161130    -0.33100
C659        C  0.90887018  0.26689770  0.69415287     0.36200
C660        C  0.88964469  0.29081258  0.67413073    -0.06000
C661        C  0.86715221  0.31356102  0.69231229    -0.33000
C662        C  0.86799209  0.31646146  0.72977435     0.36100
H663        H  0.92652629  0.25272615  0.74629290     0.16500
O664        O  0.93008653  0.24330620  0.67732175    -0.60400
H665        H  0.85178633  0.33186035  0.67744692     0.16500
O666        O  0.84806185  0.34116714  0.74662226    -0.60500
H667        H  0.86011444  0.36340248  0.74229230     0.43500
H668        H  0.91460440  0.22429983  0.66966894     0.43400
C669        C  0.88877648  0.62730538  0.67956408    -0.05600
C670        C  0.86570086  0.60625115  0.69885126    -0.33100
C671        C  0.86531522  0.60665510  0.73638279     0.36200
C672        C  0.88825875  0.62839088  0.75514556    -0.06000
C673        C  0.90731126  0.65311440  0.73587398    -0.33000
C674        C  0.90775349  0.65264909  0.69831511     0.36100
H675        H  0.85042071  0.58698095  0.68502471     0.16500
O676        O  0.84506413  0.58312405  0.75423729    -0.60400
H677        H  0.92469637  0.67046254  0.74972397     0.16500
O678        O  0.92945859  0.67482608  0.68043201    -0.60500
H679        H  0.91412633  0.69254173  0.66993293     0.43500
H680        H  0.82635180  0.59694410  0.76574872     0.43400
C681        C  0.87616156  0.42018275  0.56437228    -0.05600
C682        C  0.88304044  0.43892983  0.53299825    -0.33100
C683        C  0.88317729  0.47524444  0.53384881     0.36200
C684        C  0.87649529  0.49288611  0.56639182    -0.06000
C685        C  0.86468304  0.47405710  0.59608398    -0.33000
C686        C  0.86397931  0.43795146  0.59506552     0.36100
H687        H  0.89202779  0.42567720  0.50897389     0.16500
O688        O  0.89381959  0.49292277  0.50398066    -0.60400
H689        H  0.85870183  0.48722913  0.62111301     0.16500
O690        O  0.85486065  0.42025824  0.62548124    -0.60500
H691        H  0.82943132  0.41742989  0.62416279     0.43500
H692        H  0.91918414  0.49538362  0.50646179     0.43400
C693        C  0.23066008  0.62649341  0.67489196    -0.05600
C694        C  0.25286267  0.60355211  0.69247231    -0.33100
C695        C  0.25383615  0.60252799  0.73003846     0.36200
C696        C  0.23281629  0.62511562  0.75071594    -0.06000
C697        C  0.21439171  0.65110550  0.73307830    -0.33000
C698        C  0.21273923  0.65157624  0.69552640     0.36100
H699        H  0.26699438  0.58410054  0.67726092     0.16500
O700        O  0.27298798  0.57724955  0.74610598    -0.60400
H701        H  0.19833491  0.66897733  0.74832275     0.16500
O702        O  0.19187241  0.67539720  0.67936895    -0.60500
H703        H  0.16798539  0.66658198  0.68266600     0.43500
H704        H  0.29467894  0.58882232  0.75335580     0.43400
C705        C  0.09626948  0.56082625  0.60200077    -0.05600
C706        C  0.07836485  0.57791250  0.62975771    -0.33100
C707        C  0.04232077  0.57789327  0.63088788     0.36200
C708        C  0.02379942  0.56052567  0.60390283    -0.06000
C709        C  0.04181762  0.53968109  0.57905275    -0.33000
C710        C  0.07791636  0.53948412  0.57814798     0.36100
H711        H  0.09219803  0.59347074  0.64912219     0.16500
O712        O  0.02556503  0.59646699  0.65729314    -0.60400
H713        H  0.02802338  0.52549422  0.55858746     0.16500
O714        O  0.09468317  0.52123147  0.55154253    -0.60500
H715        H  0.09975063  0.49838496  0.56216571     0.43500
H716        H  0.02718825  0.62100003  0.64978721     0.43400
C717        C  0.22861866  0.29117782  0.66583057    -0.05600
C718        C  0.25425323  0.30978842  0.68398478    -0.33100
C719        C  0.25480823  0.31040950  0.72160189     0.36200
C720        C  0.22968034  0.29192326  0.74147325    -0.06000
C721        C  0.20747984  0.26944000  0.72315257    -0.33000
C722        C  0.20668532  0.26910495  0.68567187     0.36100
H723        H  0.27153929  0.32671054  0.66926234     0.16500
O724        O  0.27780941  0.33180727  0.73847706    -0.60400
H725        H  0.18823541  0.25464767  0.73776881     0.16500
O726        O  0.18194669  0.24970908  0.66886974    -0.60500
H727        H  0.19295324  0.22692446  0.66432771     0.43500
H728        H  0.29552252  0.31619532  0.74854833     0.43400
C729        C  0.24170019  0.42486856  0.55339807    -0.05600
C730        C  0.25450916  0.44228502  0.58353071    -0.33100
C731        C  0.25405982  0.47840532  0.58545777     0.36200
C732        C  0.24097427  0.49777129  0.55678711    -0.06000
C733        C  0.23284973  0.48058658  0.52468095    -0.33000
C734        C  0.23313468  0.44425237  0.52284938     0.36100
H735        H  0.26211501  0.42788401  0.60697900     0.16500
O736        O  0.26459010  0.49453631  0.61631957    -0.60400
H737        H  0.22303372  0.49503324  0.50218803     0.16500
O738        O  0.22187190  0.42810984  0.49234303    -0.60500
H739        H  0.19633753  0.42692067  0.49506785     0.43500
H740        H  0.24595180  0.49019886  0.63429196     0.43400
C741        C  0.02428807  0.35494049  0.59679856    -0.05600
C742        C  0.04291658  0.33385365  0.62005065    -0.33100
C743        C  0.07876455  0.33365874  0.61909521     0.36200
C744        C  0.09664055  0.35498937  0.59472443    -0.06000
C745        C  0.07827116  0.37928638  0.57467977    -0.33000
C746        C  0.04206635  0.37927350  0.57545842     0.36100
H747        H  0.02973023  0.31553755  0.63729378     0.16500
O748        O  0.09593646  0.31035618  0.64000140    -0.60400
H749        H  0.09176226  0.39626624  0.55625429     0.16500
O750        O  0.02450792  0.40145650  0.55362945    -0.60500
H751        H  0.02453235  0.39012234  0.52972731     0.43500
H752        H  0.10172137  0.32324254  0.66214964     0.43400
C753        C  0.34963085  0.30248165  0.95649025    -0.05600
C754        C  0.36528209  0.29127095  0.92417373    -0.33100
C755        C  0.39092610  0.26549322  0.92370301     0.36200
C756        C  0.40131359  0.24991108  0.95604806    -0.06000
C757        C  0.39090876  0.26631134  0.98826315    -0.33000
C758        C  0.36560827  0.29247341  0.98869931     0.36100
H759        H  0.35729441  0.30194687  0.89886064     0.16500
O760        O  0.40626623  0.25638231  0.89163435    -0.60400
H761        H  0.40178972  0.25842681  0.01350522     0.16500
O762        O  0.35717394  0.30854535  0.02055545    -0.60500
H763        H  0.34909178  0.29002475  0.03691870     0.43500
H764        H  0.38731245  0.24844831  0.87587377     0.43400
C765        C  0.29145364  0.42158446  0.95837293    -0.05600
C766        C  0.31644546  0.44021911  0.93862021    -0.33100
C767        C  0.31785568  0.47671050  0.93970532     0.36200
C768        C  0.29362021  0.49586139  0.96041755    -0.06000
C769        C  0.26851241  0.47724604  0.97999231    -0.33000
C770        C  0.26754931  0.44073537  0.97944999     0.36100
H771        H  0.33499681  0.42642370  0.92192689     0.16500
O772        O  0.34212418  0.49337811  0.91904932    -0.60400
H773        H  0.24987567  0.49105922  0.99656732     0.16500
O774        O  0.24363032  0.42413623  0.00055940    -0.60500
H775        H  0.25629275  0.41727855  0.02236778     0.43500
H776        H  0.36437205  0.48997802  0.93151906     0.43400
C777        C  0.34604489  0.62063488  0.96416078    -0.05600
C778        C  0.38117248  0.61107682  0.96590561    -0.33100
C779        C  0.40771816  0.63620781  0.96582442     0.36200
C780        C  0.39948213  0.67185999  0.96320850    -0.06000
C781        C  0.36429253  0.68090074  0.96222131    -0.33000
C782        C  0.33813839  0.65629589  0.96282458     0.36100
H783        H  0.38853791  0.58421166  0.96745807     0.16500
O784        O  0.44118446  0.62510945  0.96794379    -0.60400
H785        H  0.35675799  0.70785881  0.96068870     0.16500
O786        O  0.30446690  0.66757409  0.96233612    -0.60500
H787        H  0.30086994  0.67677525  0.93788504     0.43500
H788        H  0.44531395  0.62186733  0.99389430     0.43400
C789        C  0.59494390  0.18949915  0.96023742    -0.05600
C790        C  0.57738554  0.21443128  0.93990333    -0.33100
C791        C  0.54100724  0.21518649  0.93798584     0.36200
C792        C  0.52055461  0.19097182  0.95703781    -0.06000
C793        C  0.53804465  0.16597755  0.97739889    -0.33000
C794        C  0.57454037  0.16516203  0.97922540     0.36100
H795        H  0.59196846  0.23315106  0.92447006     0.16500
O796        O  0.52589137  0.23934298  0.91647588    -0.60400
H797        H  0.52335629  0.14728512  0.99276934     0.16500
O798        O  0.58974679  0.14081736  0.00044340    -0.60500
H799        H  0.59446255  0.15284383  0.02341032     0.43500
H800        H  0.52504108  0.22842581  0.89239060     0.43400
C801        C  0.71843053  0.24446573  0.95881154    -0.05600
C802        C  0.70810359  0.27940634  0.95844799    -0.33100
C803        C  0.73266916  0.30643576  0.95714580     0.36200
C804        C  0.76860558  0.29887341  0.95654741    -0.06000
C805        C  0.77835451  0.26383544  0.95620261    -0.33000
C806        C  0.75426260  0.23723363  0.95768120     0.36100
H807        H  0.68105400  0.28623948  0.95914801     0.16500
O808        O  0.72072707  0.33970359  0.95675874    -0.60400
H809        H  0.80547846  0.25679887  0.95542175     0.16500
O810        O  0.76621733  0.20376868  0.95740231    -0.60500
H811        H  0.77514290  0.19971356  0.98181498     0.43500
H812        H  0.71664617  0.34479871  0.93113269     0.43400
C813        C  0.52248218  0.72906675  0.96167759    -0.05600
C814        C  0.54095528  0.75246801  0.93991923    -0.33100
C815        C  0.57747748  0.75359383  0.93973753     0.36200
C816        C  0.59662227  0.73072099  0.96123295    -0.06000
C817        C  0.57813997  0.70791627  0.98358418    -0.33000
C818        C  0.54171343  0.70710458  0.98417069     0.36100
H819        H  0.52707862  0.76955738  0.92225984     0.16500
O820        O  0.59415755  0.77582001  0.91686902    -0.60400
H821        H  0.59203386  0.69080604  0.00122146     0.16500
O822        O  0.52519060  0.68598067  0.00829102    -0.60500
H823        H  0.52948954  0.66205246  0.99958354     0.43500
H824        H  0.59077461  0.79919763  0.92749199     0.43400
C825        C  0.82485513  0.49761550  0.96085344    -0.05600
C826        C  0.79961503  0.47928761  0.98052607    -0.33100
C827        C  0.79831357  0.44280515  0.98012984     0.36200
C828        C  0.82259434  0.42336411  0.95974182    -0.06000
C829        C  0.84787189  0.44165474  0.94015683    -0.33000
C830        C  0.84914869  0.47816716  0.94052234     0.36100
H831        H  0.78100953  0.49329439  0.99695771     0.16500
O832        O  0.77430149  0.42645488  0.00138782    -0.60400
H833        H  0.86646156  0.42761193  0.92373458     0.16500
O834        O  0.87301751  0.49453581  0.91912095    -0.60500
H835        H  0.89576830  0.48976337  0.93003454     0.43500
H836        H  0.75173675  0.43052107  0.98978410     0.43400
C837        C  0.77232400  0.62203250  0.96311294    -0.05600
C838        C  0.73720370  0.61244963  0.96178604    -0.33100
C839        C  0.71075540  0.63764426  0.96073789     0.36200
C840        C  0.71916859  0.67336359  0.96099600    -0.06000
C841        C  0.75435187  0.68234056  0.96204896    -0.33000
C842        C  0.78033076  0.65768554  0.96358477     0.36100
H843        H  0.72980086  0.58554051  0.96141554     0.16500
O844        O  0.67722999  0.62657598  0.95964134    -0.60400
H845        H  0.76200597  0.70931308  0.96202222     0.16500
O846        O  0.81399592  0.66890406  0.96453759    -0.60500
H847        H  0.81733203  0.67804205  0.98916003     0.43500
H848        H  0.67250075  0.62265440  0.93386984     0.43400
C849        C  0.26123298  0.80301560  0.45694590    -0.05600
C850        C  0.24657547  0.79090819  0.42490254    -0.33100
C851        C  0.22029143  0.76582327  0.42530599     0.36200
C852        C  0.20950201  0.75097831  0.45813980    -0.06000
C853        C  0.21874670  0.76845519  0.48979953    -0.33000
C854        C  0.24377211  0.79480536  0.48930900     0.36100
H855        H  0.25552900  0.80060741  0.39931167     0.16500
O856        O  0.20436364  0.75702006  0.39381916    -0.60400
H857        H  0.20734511  0.76106474  0.51524413     0.16500
O858        O  0.25085516  0.81255225  0.52038146    -0.60500
H859        H  0.25810974  0.79497251  0.53800477     0.43500
H860        H  0.22297460  0.74957698  0.37697913     0.43400
C861        C  0.01876544  0.68567931  0.46492875    -0.05600
C862        C  0.03683387  0.71101144  0.48448116    -0.33100
C863        C  0.07319365  0.71234806  0.48435066     0.36200
C864        C  0.09296616  0.68821838  0.46413204    -0.06000
C865        C  0.07502635  0.66233700  0.44523292    -0.33000
C866        C  0.03851434  0.66105340  0.44529945     0.36100
H867        H  0.02268270  0.72984844  0.50046375     0.16500
O868        O  0.08904216  0.73719329  0.50473416    -0.60400
H869        H  0.08933354  0.64352005  0.42936922     0.16500
O870        O  0.02257601  0.63618669  0.42504878    -0.60500
H871        H  0.01872453  0.64706971  0.40144145     0.43500
H872        H  0.09473575  0.72559579  0.52753640     0.43400
C873        C  0.89528274  0.74150967  0.46556509    -0.05600
C874        C  0.86012994  0.73235578  0.46537532    -0.33100
C875        C  0.83391518  0.75687126  0.46409211     0.36200
C876        C  0.84165680  0.79259090  0.46279572    -0.06000
C877        C  0.87675250  0.80236803  0.46350709    -0.33000
C878        C  0.90340365  0.77733971  0.46513051     0.36100
H879        H  0.85266433  0.70533937  0.46595270     0.16500
O880        O  0.80033557  0.74539236  0.46329665    -0.60400
H881        H  0.88395110  0.82933530  0.46293904     0.16500
O882        O  0.93684123  0.78869295  0.46614379    -0.60500
H883        H  0.94129117  0.79359700  0.49179425     0.43500
H884        H  0.79520317  0.73680646  0.48779323     0.43400
C885        C  0.78778159  0.91700585  0.45837496    -0.05600
C886        C  0.81294538  0.93484094  0.43809217    -0.33100
C887        C  0.81417307  0.97138584  0.43718246     0.36200
C888        C  0.79039438  0.99161572  0.45745627    -0.06000
C889        C  0.76476783  0.97378684  0.47718332    -0.33000
C890        C  0.76332361  0.93721629  0.47780558     0.36100
H891        H  0.83166307  0.92035180  0.42226921     0.16500
O892        O  0.83854182  0.98697622  0.41577972    -0.60400
H893        H  0.74609739  0.98824799  0.49309155     0.16500
O894        O  0.73831125  0.92169919  0.49845481    -0.60500
H895        H  0.74981422  0.91584287  0.52123391     0.43500
H896        H  0.82945409  0.98519092  0.39108721     0.43400
C897        C  0.89788571  0.17005987  0.46254818    -0.05600
C898        C  0.90774277  0.13512185  0.45831229    -0.33100
C899        C  0.88283001  0.10829700  0.45688886     0.36200
C900        C  0.84709609  0.11597043  0.46028703    -0.06000
C901        C  0.83774213  0.15103491  0.46382083    -0.33000
C902        C  0.86211931  0.17745744  0.46515925     0.36100
H903        H  0.93465439  0.12825610  0.45514011     0.16500
O904        O  0.89399850  0.07529805  0.45021341    -0.60400
H905        H  0.81069482  0.15826200  0.46553203     0.16500
O906        O  0.85045334  0.21097093  0.46768810    -0.60500
H907        H  0.84125462  0.21362248  0.49248923     0.43500
H908        H  0.90264126  0.06684006  0.47344578     0.43400
C909        C  0.09665908  0.22722330  0.45593690    -0.05600
C910        C  0.07882299  0.20268000  0.47694637    -0.33100
C911        C  0.04233081  0.20171840  0.47886957     0.36200
C912        C  0.02209159  0.22522829  0.45911151    -0.06000
C913        C  0.03988601  0.24991135  0.43818932    -0.33000
C914        C  0.07647452  0.25088434  0.43628796     0.36100
H915        H  0.09328387  0.18442879  0.49277254     0.16500
O916        O  0.02682192  0.17811879  0.50109050    -0.60400
H917        H  0.02534521  0.26818818  0.42246566     0.16500
O918        O  0.09207320  0.27461667  0.41427620    -0.60500
H919        H  0.09678444  0.26206459  0.39147352     0.43500
H920        H  0.02474035  0.18996457  0.52466784     0.43400
C921        C  0.32209254  0.92062308  0.45893986    -0.05600
C922        C  0.34519430  0.93805843  0.43588369    -0.33100
C923        C  0.34640798  0.97452623  0.43475607     0.36200
C924        C  0.32476783  0.99464069  0.45740945    -0.06000
C925        C  0.30198925  0.97715851  0.48078917    -0.33000
C926        C  0.30046821  0.94071310  0.48161712     0.36100
H927        H  0.36187720  0.92332800  0.41795522     0.16500
O928        O  0.36824220  0.99015752  0.41062390    -0.60400
H929        H  0.28535625  0.99185731  0.49878913     0.16500
O930        O  0.27881845  0.92496942  0.50588167    -0.60500
H931        H  0.25521504  0.92805314  0.49631358     0.43500
H932        H  0.35359357  0.99601698  0.38986761     0.43400
C933        C  0.27086883  0.11867980  0.45462227    -0.05600
C934        C  0.28052139  0.15372287  0.45569328    -0.33100
C935        C  0.25642516  0.18034669  0.45513422     0.36200
C936        C  0.22064376  0.17315763  0.45373867    -0.06000
C937        C  0.21045145  0.13816723  0.45192466    -0.33000
C938        C  0.23506425  0.11109181  0.45227449     0.36100
H939        H  0.30758885  0.16077331  0.45710084     0.16500
O940        O  0.26832383  0.21375968  0.45705035    -0.60400
H941        H  0.18349030  0.13132885  0.45006150     0.16500
O942        O  0.22341698  0.07781522  0.44936013    -0.60500
H943        H  0.21586025  0.07138645  0.47390573     0.43500
H944        H  0.27768784  0.21895032  0.43284260     0.43400
C945        C  0.59688385  0.05873239  0.82669300    -0.05600
C946        C  0.57910737  0.03706376  0.85064694    -0.33100
C947        C  0.54297687  0.03672568  0.85155895     0.36200
C948        C  0.52453781  0.05794756  0.82788903    -0.06000
C949        C  0.54246004  0.07603482  0.80110910    -0.33000
C950        C  0.57835025  0.07688923  0.80058864     0.36100
H951        H  0.59305477  0.02246325  0.87051174     0.16500
O952        O  0.52615201  0.01717868  0.87687540    -0.60400
H953        H  0.52870857  0.09171186  0.78198050     0.16500
O954        O  0.59495034  0.09694395  0.77552999    -0.60500
H955        H  0.59266879  0.12109136  0.78448053     0.43500
H956        H  0.52700437  0.03099110  0.89930369     0.43400
C957        C  0.74059231  0.91975317  0.87093222    -0.05600
C958        C  0.75640881  0.93567106  0.84127377    -0.33100
C959        C  0.75649999  0.97179490  0.83828788     0.36200
C960        C  0.74196128  0.99237080  0.86591805    -0.06000
C961        C  0.73072728  0.97651959  0.89762354    -0.33000
C962        C  0.72892986  0.94044374  0.89978123     0.36100
H963        H  0.76500489  0.92019674  0.81855078     0.16500
O964        O  0.76776964  0.98648577  0.80691290    -0.60400
H965        H  0.71927971  0.99191906  0.91903082     0.16500
O966        O  0.71296464  0.92564086  0.92884288    -0.60500
H967        H  0.68785680  0.92971365  0.92556611     0.43500
H968        H  0.79172831  0.99431238  0.81173928     0.43400
C969        C  0.38295044  0.91487822  0.85037340    -0.05600
C970        C  0.37402737  0.93368625  0.81980330    -0.33100
C971        C  0.37319376  0.96981414  0.82058193     0.36200
C972        C  0.38145482  0.98781629  0.85231900    -0.06000
C973        C  0.38644971  0.96898211  0.88388362    -0.33000
C974        C  0.38735606  0.93268124  0.88307393     0.36100
H975        H  0.37016024  0.92047181  0.79446822     0.16500
O976        O  0.36737508  0.98729796  0.78934332    -0.60400
H977        H  0.39303436  0.98232222  0.90843586     0.16500
O978        O  0.39686528  0.91526990  0.91328720    -0.60500
H979        H  0.37494612  0.91054952  0.92633521     0.43500
H980        H  0.34191943  0.98739028  0.78659781     0.43400
C981        C  0.59620678  0.84465175  0.81053398    -0.05600
C982        C  0.57718741  0.87180868  0.82609332    -0.33100
C983        C  0.54120040  0.87178285  0.82450363     0.36200
C984        C  0.52418328  0.84407932  0.80743293    -0.06000
C985        C  0.54355405  0.81999347  0.78738002    -0.33000
C986        C  0.57946754  0.82015724  0.78883072     0.36100
H987        H  0.58991566  0.89139742  0.84209377     0.16500
O988        O  0.52306788  0.89695315  0.84271743    -0.60400
H989        H  0.53090787  0.79919698  0.77303178     0.16500
O990        O  0.59771338  0.79459865  0.77134975    -0.60500
H991        H  0.60658527  0.80549604  0.74906232     0.43500
H992        H  0.51854296  0.91507190  0.82475120     0.43400
C993        C  0.73059305  0.11925636  0.67362004    -0.05600
C994        C  0.71208642  0.14513151  0.69221832    -0.33100
C995        C  0.71144395  0.14608085  0.72978117     0.36200
C996        C  0.73001605  0.12128126  0.74937315    -0.06000
C997        C  0.75198922  0.09835780  0.73073751    -0.33000
C998        C  0.75217940  0.09700566  0.69320273     0.36100
H999        H  0.69544187  0.16263512  0.67782404     0.16500
O1000       O  0.69011752  0.16935923  0.74693916    -0.60400
H1001       H  0.76652890  0.07910574  0.74520650     0.16500
O1002       O  0.77109523  0.07165081  0.67621019    -0.60500
H1003       H  0.79258331  0.08326116  0.66795876     0.43500
H1004       H  0.70558785  0.18806587  0.75538643     0.43400
C1005       C  0.39030629  0.12268991  0.67209352    -0.05600
C1006       C  0.36816818  0.10066218  0.69147005    -0.33100
C1007       C  0.36884454  0.09960575  0.72897493     0.36200
C1008       C  0.39170467  0.12114156  0.74796980    -0.06000
C1009       C  0.41109342  0.14580135  0.72885959    -0.33000
C1010       C  0.41045320  0.14681462  0.69123270     0.36100
H1011       H  0.35230120  0.08201568  0.67744524     0.16500
O1012       O  0.34950710  0.07505389  0.74642370    -0.60400
H1013       H  0.42869563  0.16273876  0.74295664     0.16500
O1014       O  0.43165002  0.16962758  0.67354127    -0.60500
H1015       H  0.45486318  0.15872059  0.67334190     0.43500
H1016       H  0.36361302  0.05361275  0.74533922     0.43400
C1017       C  0.52196691  0.13230008  0.56144588    -0.05600
C1018       C  0.53875025  0.14305843  0.59276453    -0.33100
C1019       C  0.57479521  0.14378492  0.59441880     0.36200
C1020       C  0.59487984  0.13400257  0.56429067    -0.06000
C1021       C  0.57822395  0.12707602  0.53178289    -0.33000
C1022       C  0.54197844  0.12568867  0.53032794     0.36100
H1023       H  0.52391685  0.14845977  0.61697064     0.16500
O1024       O  0.59004880  0.15123546  0.62655400    -0.60400
H1025       H  0.59320393  0.11920565  0.50841102     0.16500
O1026       O  0.52667610  0.11457485  0.49940299    -0.60500
H1027       H  0.52615783  0.08897966  0.50105017     0.43500
H1028       H  0.59731686  0.17571096  0.62476445     0.43400
C1029       C  0.72429291  0.79626688  0.66731987    -0.05600
C1030       C  0.74409079  0.82237360  0.68356869    -0.33100
C1031       C  0.74516932  0.82567219  0.72083878     0.36200
C1032       C  0.72683153  0.80225508  0.74261678    -0.06000
C1033       C  0.71069106  0.77366168  0.72660170    -0.33000
C1034       C  0.70925106  0.77055262  0.68916798     0.36100
H1035       H  0.75633430  0.84218386  0.66741610     0.16500
O1036       O  0.76194554  0.85349120  0.73555555    -0.60400
H1037       H  0.69651056  0.75535645  0.74298915     0.16500
O1038       O  0.68995706  0.74443656  0.67452566    -0.60500
H1039       H  0.70620256  0.72474385  0.67156746     0.43500
H1040       H  0.78428582  0.84421958  0.74400107     0.43400
C1041       C  0.64963788  0.91930393  0.58959946    -0.05600
C1042       C  0.66235417  0.93594286  0.62025494    -0.33100
C1043       C  0.66533648  0.97185261  0.62140217     0.36200
C1044       C  0.65531496  0.99146134  0.59160891    -0.06000
C1045       C  0.63861023  0.97509059  0.56298565    -0.33000
C1046       C  0.63572182  0.93920192  0.56179034     0.36100
H1047       H  0.67269599  0.92106551  0.64218304     0.16500
O1048       O  0.68093232  0.98707719  0.65030194    -0.60400
H1049       H  0.63009132  0.98983489  0.54012706     0.16500
O1050       O  0.62232295  0.92387972  0.53176430    -0.60500
H1051       H  0.59719152  0.92195895  0.53668556     0.43500
H1052       H  0.66220568  0.99041022  0.66830777     0.43400
C1053       C  0.38185387  0.78566318  0.66707604    -0.05600
C1054       C  0.40081212  0.75917971  0.68331764    -0.33100
C1055       C  0.40254502  0.75703393  0.72073875     0.36200
C1056       C  0.38455505  0.78120122  0.74244308    -0.06000
C1057       C  0.36148315  0.80413242  0.72611577    -0.33000
C1058       C  0.36037156  0.80682401  0.68876266     0.36100
H1059       H  0.41730190  0.74243783  0.66719930     0.16500
O1060       O  0.42479262  0.73368831  0.73558413    -0.60400
H1061       H  0.34714530  0.82278319  0.74218505     0.16500
O1062       O  0.34102208  0.83272698  0.67405375    -0.60500
H1063       H  0.31983520  0.82121053  0.66530697     0.43500
H1064       H  0.41115505  0.71214725  0.73826739     0.43400
C1065       C  0.45424199  0.91773846  0.59481260    -0.05600
C1066       C  0.43767866  0.93571173  0.62291100    -0.33100
C1067       C  0.43632033  0.97175193  0.62284577     0.36200
C1068       C  0.45231109  0.99012077  0.59474863    -0.06000
C1069       C  0.47295166  0.97231027  0.56960671    -0.33000
C1070       C  0.47401691  0.93625059  0.56944895     0.36100
H1071       H  0.42317656  0.92186326  0.64327026     0.16500
O1072       O  0.41780460  0.98861850  0.64923869    -0.60400
H1073       H  0.48591273  0.98613041  0.54815769     0.16500
O1074       O  0.49122900  0.91960439  0.54202723    -0.60500
H1075       H  0.51359564  0.91240464  0.55230632     0.43500
H1076       H  0.39323221  0.98635013  0.64230766     0.43400
C1077       C  0.51449326  0.77282765  0.55097101    -0.05600
C1078       C  0.53309340  0.78471897  0.52094681    -0.33100
C1079       C  0.56935044  0.78559010  0.52113660     0.36200
C1080       C  0.58731277  0.77389493  0.55137371    -0.06000
C1081       C  0.56878379  0.75771617  0.57909730    -0.33000
C1082       C  0.53260596  0.75688957  0.57893331     0.36100
H1083       H  0.51966850  0.79689597  0.49904587     0.16500
O1084       O  0.58668583  0.80151096  0.49356169    -0.60400
H1085       H  0.58224514  0.74800995  0.60226399     0.16500
O1086       O  0.51511010  0.74222668  0.60720300    -0.60500
H1087       H  0.51734511  0.75883070  0.62737500     0.43500
H1088       H  0.58423856  0.82668221  0.49827258     0.43400
C1089       C  0.14310920  0.41635836  0.08046652    -0.05600
C1090       C  0.13259535  0.43504780  0.05039323    -0.33100
C1091       C  0.13338967  0.47115619  0.05071192     0.36200
C1092       C  0.14545388  0.48881537  0.08124021    -0.06000
C1093       C  0.15111711  0.47024811  0.11281054    -0.33000
C1094       C  0.14980655  0.43418420  0.11268292     0.36100
H1095       H  0.12647770  0.42176121  0.02562127     0.16500
O1096       O  0.12562313  0.48856464  0.01994986    -0.60400
H1097       H  0.15902931  0.48349504  0.13703284     0.16500
O1098       O  0.15723606  0.41666568  0.14354092    -0.60500
H1099       H  0.18268724  0.41810786  0.14601169     0.43500
H1100       H  0.10040887  0.49302874  0.02158925     0.43400
C1101       C  0.02219102  0.64599959  0.06456194    -0.05600
C1102       C  0.04035674  0.65345425  0.09600267    -0.33100
C1103       C  0.07639194  0.65179715  0.09638386     0.36200
C1104       C  0.09476638  0.64226958  0.06503356    -0.06000
C1105       C  0.07701040  0.64037883  0.03245244    -0.33000
C1106       C  0.04076260  0.64231916  0.03204272     0.36100
H1107       H  0.02650244  0.65703107  0.12116529     0.16500
O1108       O  0.09303573  0.65561784  0.12841622    -0.60400
H1109       H  0.09073698  0.63340190  0.00799405     0.16500
O1110       O  0.02386442  0.63529565  0.00075579    -0.60500
H1111       H  0.01901051  0.65823800  0.99020543     0.43500
H1112       H  0.10217729  0.67957898  0.12823505     0.43400
C1113       C  0.01683721  0.27413616  0.05605910    -0.05600
C1114       C  0.03427385  0.28015092  0.02355273    -0.33100
C1115       C  0.07049363  0.27836503  0.02147240     0.36200
C1116       C  0.08959963  0.27028722  0.05230703    -0.06000
C1117       C  0.07166477  0.25944411  0.08323065    -0.33000
C1118       C  0.03556588  0.26165352  0.08537036     0.36100
H1119       H  0.02022638  0.29008599  0.00090441     0.16500
O1120       O  0.08690584  0.28932208  0.99082727    -0.60400
H1121       H  0.08575789  0.25250144  0.10705432     0.16500
O1122       O  0.01895962  0.25373124  0.11696695    -0.60500
H1123       H  0.02271557  0.27393034  0.13295166     0.43500
H1124       H  0.08382689  0.27031342  0.97322945     0.43400
C1125       C  0.96631702  0.42505965  0.07747196    -0.05600
C1126       C  0.97448635  0.44265657  0.04567620    -0.33100
C1127       C  0.97680811  0.47877075  0.04563290     0.36200
C1128       C  0.97090420  0.49729109  0.07777172    -0.06000
C1129       C  0.96830193  0.47927990  0.11014593    -0.33000
C1130       C  0.96570117  0.44334863  0.11015557     0.36100
H1131       H  0.97602009  0.42880706  0.02037736     0.16500
O1132       O  0.98186577  0.49564698  0.01374896    -0.60400
H1133       H  0.96502070  0.49315083  0.13527883     0.16500
O1134       O  0.96077923  0.42650015  0.14205442    -0.60500
H1135       H  0.93629294  0.43077422  0.14889550     0.43500
H1136       H  0.95891916  0.49608525  0.00221142     0.43400
C1137       C  0.22984698  0.60531342  0.17184730    -0.05600
C1138       C  0.21988128  0.63503089  0.19118820    -0.33100
C1139       C  0.22087783  0.63561880  0.22875312     0.36200
C1140       C  0.23146618  0.60593653  0.24753676    -0.06000
C1141       C  0.24547593  0.57800719  0.22800498    -0.33000
C1142       C  0.24514352  0.57770196  0.19050550     0.36100
H1143       H  0.20860008  0.65682174  0.17745375     0.16500
O1144       O  0.20786634  0.66388042  0.24671840    -0.60400
H1145       H  0.25450835  0.55521568  0.24181176     0.16500
O1146       O  0.25699786  0.54885785  0.17266037    -0.60500
H1147       H  0.28014409  0.55535257  0.16319774     0.43500
H1148       H  0.22738661  0.68043306  0.24800760     0.43400
C1149       C  0.23043798  0.30684127  0.23876515    -0.05600
C1150       C  0.21693690  0.27709089  0.22215697    -0.33100
C1151       C  0.21510670  0.27465455  0.18459804     0.36200
C1152       C  0.22717533  0.30214529  0.16311778    -0.06000
C1153       C  0.24429412  0.32985475  0.17977152    -0.33000
C1154       C  0.24572132  0.33247258  0.21717165     0.36100
H1155       H  0.20484289  0.25715593  0.23826064     0.16500
O1156       O  0.19793545  0.24724296  0.16960260    -0.60400
H1157       H  0.25431982  0.35102501  0.16386409     0.16500
O1158       O  0.26065663  0.36108386  0.23243239    -0.60500
H1159       H  0.24350065  0.37995390  0.22988562     0.43500
H1160       H  0.21628972  0.23071178  0.16215737     0.43400
C1161       C  0.22240462  0.42269498  0.38455083    -0.05600
C1162       C  0.24945610  0.44144567  0.36839358    -0.33100
C1163       C  0.25017502  0.47777497  0.37062310     0.36200
C1164       C  0.22322533  0.49552830  0.38864047    -0.06000
C1165       C  0.19964946  0.47649040  0.40942490    -0.33000
C1166       C  0.19894324  0.44039049  0.40735318     0.36100
H1167       H  0.26808865  0.42833979  0.35119970     0.16500
O1168       O  0.27467233  0.49559398  0.35137240    -0.60400
H1169       H  0.17942380  0.48964909  0.42452637     0.16500
O1170       O  0.17360129  0.42279145  0.42572298    -0.60500
H1171       H  0.15192991  0.42731852  0.41269244     0.43500
H1172       H  0.29557942  0.49531110  0.36638843     0.43400
C1173       C  0.88233587  0.61041210  0.24944679    -0.05600
C1174       C  0.89594062  0.63966584  0.23212595    -0.33100
C1175       C  0.89810856  0.64105253  0.19461408     0.36200
C1176       C  0.88587618  0.61315249  0.17377727    -0.06000
C1177       C  0.86818235  0.58614135  0.19109225    -0.33000
C1178       C  0.86627557  0.58464863  0.22855806     0.36100
H1179       H  0.90804653  0.66004750  0.24757068     0.16500
O1180       O  0.91501025  0.66831489  0.17890978    -0.60400
H1181       H  0.85805293  0.56467366  0.17566043     0.16500
O1182       O  0.85137476  0.55630499  0.24431248    -0.60500
H1183       H  0.82690316  0.56288950  0.24858545     0.43500
H1184       H  0.93994553  0.66244054  0.18004807     0.43400
C1185       C  0.02090735  0.58100861  0.30589863    -0.05600
C1186       C  0.03843948  0.54939306  0.30892451    -0.33100
C1187       C  0.07448229  0.54852225  0.30929736     0.36200
C1188       C  0.09322123  0.57964343  0.30652602    -0.06000
C1189       C  0.07575153  0.61028899  0.29820979    -0.33000
C1190       C  0.03976972  0.61125469  0.29823564     0.36100
H1191       H  0.02431335  0.52574664  0.31423160     0.16500
O1192       O  0.09072635  0.51778716  0.31619968    -0.60400
H1193       H  0.08980925  0.63430741  0.29487676     0.16500
O1194       O  0.02343118  0.64234956  0.29332294    -0.60500
H1195       H  0.02500854  0.65466927  0.31666451     0.43500
H1196       H  0.09913508  0.50930860  0.29254521     0.43400
C1197       C  0.88386631  0.30069148  0.24601692    -0.05600
C1198       C  0.86621415  0.32710137  0.22813564    -0.33100
C1199       C  0.86623615  0.32852166  0.19061497     0.36200
C1200       C  0.88441513  0.30344442  0.17023371    -0.06000
C1201       C  0.89797448  0.27459331  0.18797898    -0.33000
C1202       C  0.89766097  0.27298216  0.22554801     0.36100
H1203       H  0.85469653  0.34829123  0.24319041     0.16500
O1204       O  0.85099001  0.35622787  0.17437089    -0.60400
H1205       H  0.91150985  0.25461528  0.17293371     0.16500
O1206       O  0.91411044  0.24596272  0.24177978    -0.60500
H1207       H  0.89601625  0.22810820  0.24525568     0.43500
H1208       H  0.82704108  0.34863483  0.16935106     0.43400
C1209       C  0.02197614  0.33259575  0.30114663    -0.05600
C1210       C  0.04045927  0.30218400  0.29365828    -0.33100
C1211       C  0.07643751  0.30235727  0.29316714     0.36200
C1212       C  0.09424585  0.33328605  0.30047521    -0.06000
C1213       C  0.07582668  0.36455042  0.30231072    -0.33000
C1214       C  0.03969720  0.36440866  0.30223759     0.36100
H1215       H  0.02713929  0.27766739  0.29103946     0.16500
O1216       O  0.09388062  0.27183422  0.28762452    -0.60400
H1217       H  0.08921326  0.38876627  0.30682757     0.16500
O1218       O  0.02226383  0.39500261  0.30701362    -0.60500
H1219       H  0.01631415  0.40260586  0.28250011     0.43500
H1220       H  0.09135498  0.25884194  0.31032603     0.43400
C1221       C  0.89558013  0.41834034  0.38365392    -0.05600
C1222       C  0.91880119  0.43638802  0.40545046    -0.33100
C1223       C  0.91953479  0.47245248  0.40575576     0.36200
C1224       C  0.89625068  0.49122068  0.38450939    -0.06000
C1225       C  0.87011734  0.47327770  0.36635247    -0.33000
C1226       C  0.86994179  0.43694680  0.36540349     0.36100
H1227       H  0.93864276  0.42248885  0.41972566     0.16500
O1228       O  0.94560550  0.48881555  0.42381101    -0.60400
H1229       H  0.85211085  0.48723930  0.34977352     0.16500
O1230       O  0.84713061  0.42017744  0.34345237    -0.60500
H1231       H  0.85847569  0.41969553  0.31945843     0.43500
H1232       H  0.93405823  0.50166685  0.44362051     0.43400
C1233       C  0.52048689  0.06962988  0.10673736    -0.05600
C1234       C  0.53722891  0.09293174  0.12959864    -0.33100
C1235       C  0.57322259  0.09393515  0.13068898     0.36200
C1236       C  0.59271220  0.07173361  0.10820259    -0.06000
C1237       C  0.57587924  0.04554396  0.08898146    -0.33000
C1238       C  0.53989845  0.04429227  0.08819447     0.36100
H1239       H  0.52248402  0.11207072  0.14462390     0.16500
O1240       O  0.58890275  0.11863352  0.15141219    -0.60400
H1241       H  0.59047181  0.02782841  0.07203264     0.16500
O1242       O  0.52430767  0.02113078  0.06558284    -0.60500
H1243       H  0.52026063  0.00020299  0.08023823     0.43500
H1244       H  0.59359931  0.10706591  0.17450029     0.43400
C1245       C  0.38330929  0.92729534  0.02969127    -0.05600
C1246       C  0.40236663  0.94538878  0.00361259    -0.33100
C1247       C  0.40273357  0.98154441  0.00335923     0.36200
C1248       C  0.38393250  0.00025466  0.02966332    -0.06000
C1249       C  0.36093181  0.98229738  0.05221442    -0.33000
C1250       C  0.36058759  0.94598382  0.05247578     0.36100
H1251       H  0.41962363  0.93154478  0.98549775     0.16500
O1252       O  0.42473325  0.99808219  0.98000261    -0.60400
H1253       H  0.34622342  0.99617719  0.07257596     0.16500
O1254       O  0.34170764  0.92943374  0.07851791    -0.60500
H1255       H  0.31983756  0.92278082  0.06682491     0.43500
H1256       H  0.40959530  0.01118645  0.96367538     0.43400
C1257       C  0.73410254  0.92468223  0.06686380    -0.05600
C1258       C  0.74391777  0.94279533  0.09777900    -0.33100
C1259       C  0.74506518  0.97887341  0.09815521     0.36200
C1260       C  0.73559201  0.99751279  0.06743173    -0.06000
C1261       C  0.72994415  0.97943386  0.03528500    -0.33000
C1262       C  0.72922960  0.94312932  0.03486817     0.36100
H1263       H  0.74839751  0.92901976  0.12249492     0.16500
O1264       O  0.75224109  0.99561497  0.12973547    -0.60400
H1265       H  0.72272932  0.99330198  0.01136542     0.16500
O1266       O  0.71962629  0.92627225  0.00420378    -0.60500
H1267       H  0.74160166  0.91841143  0.99298688     0.43500
H1268       H  0.77538697  0.00610445  0.12606721     0.43400
C1269       C  0.59237918  0.84547260  0.10695301    -0.05600
C1270       C  0.57337031  0.81849327  0.12263671    -0.33100
C1271       C  0.53735756  0.81860671  0.12161833     0.36200
C1272       C  0.52011038  0.84600150  0.10468315    -0.06000
C1273       C  0.53897350  0.87501543  0.09345980    -0.33000
C1274       C  0.57493777  0.87497474  0.09463513     0.36100
H1275       H  0.58636733  0.79598235  0.13318688     0.16500
O1276       O  0.51959622  0.79056821  0.13458589    -0.60400
H1277       H  0.52606998  0.89674820  0.08122079     0.16500
O1278       O  0.59267180  0.90265823  0.08086073    -0.60500
H1279       H  0.59892702  0.91695933  0.10196992     0.43500
H1280       H  0.51306916  0.79692468  0.15954867     0.43400
C1281       C  0.38361370  0.81674365  0.16818889    -0.05600
C1282       C  0.39461299  0.78637559  0.18515208    -0.33100
C1283       C  0.39598362  0.78458726  0.22268665     0.36200
C1284       C  0.38591797  0.81340242  0.24380095    -0.06000
C1285       C  0.37115704  0.84203936  0.22674926    -0.33000
C1286       C  0.37025885  0.84401100  0.18936316     0.36100
H1287       H  0.40503779  0.76511737  0.16935698     0.16500
O1288       O  0.41031368  0.75591600  0.23804622    -0.60400
H1289       H  0.36257328  0.86424237  0.24231227     0.16500
O1290       O  0.35779863  0.87347301  0.17376658    -0.60500
H1291       H  0.37657528  0.89082143  0.17598027     0.43500
H1292       H  0.39043804  0.74227747  0.24719419     0.43400
C1293       C  0.73003662  0.78877861  0.24728822    -0.05600
C1294       C  0.75201157  0.81190444  0.22909767    -0.33100
C1295       C  0.75393464  0.81206835  0.19158859     0.36200
C1296       C  0.73316620  0.78918549  0.17178491    -0.06000
C1297       C  0.71508600  0.76299171  0.18999272    -0.33000
C1298       C  0.71348947  0.76255005  0.22749057     0.36100
H1299       H  0.76541405  0.83197203  0.24380402     0.16500
O1300       O  0.77213541  0.83787364  0.17481586    -0.60400
H1301       H  0.69923108  0.74491063  0.17517255     0.16500
O1302       O  0.69202412  0.73923743  0.24403219    -0.60500
H1303       H  0.70665277  0.71866008  0.24835476     0.43500
H1304       H  0.79670865  0.83076620  0.17613383     0.43400
C1305       C  0.59167289  0.77553178  0.35431618    -0.05600
C1306       C  0.57364340  0.76815680  0.32279045    -0.33100
C1307       C  0.53760116  0.76941977  0.32222348     0.36200
C1308       C  0.51886235  0.77858792  0.35349149    -0.06000
C1309       C  0.53658638  0.78147106  0.38604666    -0.33000
C1310       C  0.57287141  0.77978570  0.38661962     0.36100
H1311       H  0.58761877  0.76419034  0.29776514     0.16500
O1312       O  0.52124510  0.76502785  0.29009987    -0.60400
H1313       H  0.52268290  0.78831770  0.41044431     0.16500
O1314       O  0.58962629  0.78664242  0.41799310    -0.60500
H1315       H  0.59276040  0.76375798  0.42935098     0.43500
H1316       H  0.51011727  0.74198822  0.29156891     0.43400
C1317       C  0.73136965  0.12576864  0.25052447    -0.05600
C1318       C  0.75345693  0.10386370  0.23057213    -0.33100
C1319       C  0.75463518  0.10531156  0.19303889     0.36200
C1320       C  0.73321422  0.12878264  0.17491317    -0.06000
C1321       C  0.71500184  0.15378383  0.19500804    -0.33000
C1322       C  0.71380602  0.15237051  0.23250298     0.36100
H1323       H  0.76749229  0.08345156  0.24383847     0.16500
O1324       O  0.77301727  0.08053597  0.17452912    -0.60400
H1325       H  0.69872310  0.17234274  0.18158212     0.16500
O1326       O  0.69252401  0.17488512  0.25081235    -0.60500
H1327       H  0.66914055  0.16442908  0.24972215     0.43500
H1328       H  0.79545865  0.09158184  0.16855720     0.43400
C1329       C  0.65921234  0.91995190  0.32912172    -0.05600
C1330       C  0.67207033  0.93755090  0.29906680    -0.33100
C1331       C  0.67167899  0.97357781  0.29804801     0.36200
C1332       C  0.65859649  0.99247369  0.32761978    -0.06000
C1333       C  0.64210509  0.97479801  0.35575029    -0.33000
C1334       C  0.64235556  0.93869839  0.35669613     0.36100
H1335       H  0.68440254  0.92345879  0.27722204     0.16500
O1336       O  0.68672235  0.98993764  0.26934793    -0.60400
H1337       H  0.63157018  0.98888299  0.37856859     0.16500
O1338       O  0.62941638  0.92236652  0.38647831    -0.60500
H1339       H  0.60477516  0.91793330  0.38116263     0.43500
H1340       H  0.66739135  0.99522542  0.25304471     0.43400
C1341       C  0.38864354  0.11293649  0.24911631    -0.05600
C1342       C  0.39819132  0.14226994  0.22926291    -0.33100
C1343       C  0.39708413  0.14181525  0.19161166     0.36200
C1344       C  0.38614146  0.11172683  0.17336274    -0.06000
C1345       C  0.37240206  0.08432847  0.19344829    -0.33000
C1346       C  0.37358579  0.08469711  0.23090526     0.36100
H1347       H  0.40932283  0.16449702  0.24264095     0.16500
O1348       O  0.40925617  0.16986008  0.17302212    -0.60400
H1349       H  0.36301726  0.06128400  0.18006730     0.16500
O1350       O  0.36178273  0.05634673  0.24928660    -0.60500
H1351       H  0.38030261  0.03871348  0.24670581     0.43500
H1352       H  0.43474627  0.16714497  0.17236546     0.43400
C1353       C  0.52552351  0.14617611  0.36314661    -0.05600
C1354       C  0.54459552  0.15825441  0.33358396    -0.33100
C1355       C  0.58070045  0.15709158  0.33337265     0.36200
C1356       C  0.59827868  0.14334770  0.36289890    -0.06000
C1357       C  0.57951801  0.13597790  0.39436203    -0.33000
C1358       C  0.54321554  0.13700974  0.39451463     0.36100
H1359       H  0.53144930  0.16556833  0.30929537     0.16500
O1360       O  0.59836303  0.16597352  0.30271045    -0.60400
H1361       H  0.59260095  0.12545546  0.41738168     0.16500
O1362       O  0.52540338  0.12476911  0.42375434    -0.60500
H1363       H  0.52502736  0.09926374  0.42071638     0.43500
H1364       H  0.60586843  0.19017791  0.30668377     0.43400
C1365       C  0.46693602  0.92722902  0.34033259    -0.05600
C1366       C  0.47015699  0.94473293  0.30766169    -0.33100
C1367       C  0.47364461  0.98069710  0.30721732     0.36200
C1368       C  0.47352155  0.99923185  0.33978485    -0.06000
C1369       C  0.47484574  0.98125508  0.37223294    -0.33000
C1370       C  0.47130850  0.94544323  0.37271894     0.36100
H1371       H  0.46780015  0.93080637  0.28252384     0.16500
O1372       O  0.47527205  0.99763050  0.27501588    -0.60400
H1373       H  0.47481860  0.99512113  0.39755932     0.16500
O1374       O  0.46756239  0.92925197  0.40512013    -0.60500
H1375       H  0.49118913  0.92192681  0.41163163     0.43500
H1376       H  0.45149177  0.99687462  0.26545753     0.43400
loop_ 
_geom_bond_atom_site_label_1 
_geom_bond_atom_site_label_2 
_geom_bond_distance 
_geom_bond_site_symmetry_2 
_ccdc_geom_bond_type 
In1           O3   2.225       .  S
In1           O4   2.278       .  S
In1          O12   2.274       .  S
In1           O6   2.221       .  S
In1           O8   2.224       .  S
In1           O9   2.260       .  S
In1          O10   2.224       .  S
In1          O13   2.263       .  S
C2            O8   1.259       .  A
C2           O10   1.260       .  A
C2         C1368   1.464   1_545  S
O3           C11   1.256       .  A
O4           C11   1.263       .  A
C5           O12   1.267       .  A
C5            O6   1.260       .  A
C5         C1341   1.487       .  S
C7            O9   1.254       .  A
C7           O13   1.266       .  A
C7          C320   1.480       .  S
C11        C1353   1.478       .  S
In14         O16   2.258       .  S
In14         O17   2.242       .  S
In14         O25   2.223       .  S
In14         O19   2.279       .  S
In14         O21   2.246       .  S
In14         O22   2.261       .  S
In14         O23   2.232       .  S
In14         O26   2.262       .  S
C15          O21   1.259       .  A
C15          O23   1.257       .  A
C15        C1332   1.472   1_545  S
O16          C24   1.265       .  A
O17          C24   1.262       .  A
C18          O25   1.257       .  A
C18          O19   1.263       .  A
C18        C1356   1.478       .  S
C20          O22   1.263       .  A
C20          O26   1.254       .  A
C20         C354   1.480       .  S
C24        C1317   1.486       .  S
In27         O29   2.219       .  S
In27         O30   2.279       .  S
In27         O38   2.265       .  S
In27         O32   2.225       .  S
In27         O34   2.227       .  S
In27         O35   2.251       .  S
In27         O36   2.238       .  S
In27         O39   2.268       .  S
C28          O34   1.259       .  A
C28          O36   1.259       .  A
C28        C1329   1.469       .  S
O29          C37   1.257       .  A
O30          C37   1.264       .  A
C31          O38   1.266       .  A
C31          O32   1.261       .  A
C31        C1293   1.483       .  S
C33          O35   1.253       .  A
C33          O39   1.263       .  A
C33         C380   1.479       .  S
C37        C1305   1.480       .  S
In40         O42   2.227       .  S
In40         O43   2.261       .  S
In40         O51   2.224       .  S
In40         O45   2.282       .  S
In40         O47   2.231       .  S
In40         O48   2.279       .  S
In40         O49   2.239       .  S
In40         O52   2.246       .  S
C41          O47   1.258       .  A
C41          O49   1.258       .  A
C41        C1365   1.465       .  S
O42          C50   1.263       .  A
O43          C50   1.266       .  A
C44          O51   1.256       .  A
C44          O45   1.262       .  A
C44        C1308   1.481       .  S
C46          O48   1.264       .  A
C46          O52   1.253       .  A
C46         C390   1.480       .  S
C50        C1284   1.486       .  S
In53         O55   2.223       .  S
In53         O56   2.273       .  S
In53         O64   2.265       .  S
In53         O58   2.217       .  S
In53         O60   2.230       .  S
In53         O61   2.265       .  S
In53         O62   2.233       .  S
In53         O65   2.245       .  S
C54          O60   1.257       .  A
C54          O62   1.259       .  A
C54        C1269   1.468       .  S
O55          C63   1.259       .  A
O56          C63   1.265       .  A
C57          O64   1.265       .  A
C57          O58   1.258       .  A
C57        C1296   1.478       .  S
C59          O61   1.256       .  A
C59          O65   1.262       .  A
C59         C428   1.478   1_554  S
C63        C1257   1.479       .  S
In66         O68   2.224       .  S
In66         O69   2.264       .  S
In66         O77   2.274       .  S
In66         O71   2.227       .  S
In66         O73   2.232       .  S
In66         O74   2.252       .  S
In66         O75   2.233       .  S
In66         O78   2.247       .  S
C67          O73   1.258       .  A
C67          O75   1.256       .  A
C67        C1272   1.468       .  S
O68          C76   1.260       .  A
O69          C76   1.264       .  A
C70          O77   1.264       .  A
C70          O71   1.258       .  A
C70        C1245   1.483       .  S
C72          O74   1.265       .  A
C72          O78   1.255       .  A
C72         C474   1.475   1_554  S
C76        C1281   1.481       .  S
In79         O81   2.272       .  S
In79         O82   2.221       .  S
In79         O90   2.237       .  S
In79         O84   2.264       .  S
In79         O86   2.232       .  S
In79         O87   2.246       .  S
In79         O88   2.236       .  S
In79         O91   2.262       .  S
C80          O86   1.258       .  A
C80          O88   1.256       .  A
C80        C1233   1.465       .  S
O81          C89   1.265       .  A
O82          C89   1.258       .  A
C83          O90   1.261       .  A
C83          O84   1.263       .  A
C83        C1344   1.485       .  S
C85          O87   1.255       .  A
C85          O91   1.265       .  A
C85         C500   1.476   1_554  S
C89        C1248   1.481       .  S
In92         O94   2.226       .  S
In92         O95   2.264       .  S
In92        O103   2.210       .  S
In92         O97   2.275       .  S
In92         O99   2.237       .  S
In92        O100   2.247       .  S
In92        O101   2.231       .  S
In92        O104   2.264       .  S
C93          O99   1.258       .  A
C93         O101   1.257       .  A
C93        C1236   1.469       .  S
O94         C102   1.260       .  A
O95         C102   1.264       .  A
C96         O103   1.258       .  A
C96          O97   1.265       .  A
C96        C1260   1.477   1_545  S
C98         O100   1.263       .  A
C98         O104   1.255       .  A
C98         C438   1.479   1_554  S
C102       C1320   1.481       .  S
In105       O107   2.269       .  S
In105       O108   2.207       .  S
In105       O116   2.259       .  S
In105       O110   2.254       .  S
In105       O112   2.218       .  S
In105       O113   2.255       .  S
In105       O114   2.248       .  S
In105       O117   2.257       .  S
C106        O112   1.258       .  A
C106        O114   1.258       .  A
C106       C1209   1.469   1_655  S
O107        C115   1.267       .  A
O108        C115   1.260       .  A
C109        O116   1.261       .  A
C109        O110   1.259       .  A
C109       C1197   1.488       .  S
C111        O113   1.254       .  A
C111        O117   1.265       .  A
C111        C344   1.478       .  S
C115       C1221   1.477       .  S
In118       O120   2.253       .  S
In118       O121   2.256       .  S
In118       O129   2.268       .  S
In118       O123   2.207       .  S
In118       O125   2.237       .  S
In118       O126   2.260       .  S
In118       O127   2.218       .  S
In118       O130   2.253       .  S
C119        O125   1.258       .  A
C119        O127   1.257       .  A
C119       C1185   1.468   1_655  S
O120        C128   1.260       .  A
O121        C128   1.261       .  A
C122        O129   1.267       .  A
C122        O123   1.259       .  A
C122       C1224   1.478       .  S
C124        O126   1.266       .  A
C124        O130   1.254       .  A
C124        C366   1.478       .  S
C128       C1173   1.485       .  S
In131       O133   2.237       .  S
In131       O134   2.275       .  S
In131       O142   2.213       .  S
In131       O136   2.287       .  S
In131       O138   2.249       .  S
In131       O139   2.260       .  S
In131       O140   2.214       .  S
In131       O143   2.248       .  S
C132        O138   1.259       .  A
C132        O140   1.257       .  A
C132       C1212   1.469       .  S
O133        C141   1.260       .  A
O134        C141   1.263       .  A
C135        O142   1.257       .  A
C135        O136   1.266       .  A
C135       C1161   1.484       .  S
C137        O139   1.267       .  A
C137        O143   1.256       .  A
C137        C330   1.480       .  S
C141       C1149   1.485       .  S
In144       O146   2.266       .  S
In144       O147   2.215       .  S
In144       O155   2.247       .  S
In144       O149   2.252       .  S
In144       O151   2.223       .  S
In144       O152   2.248       .  S
In144       O153   2.242       .  S
In144       O156   2.254       .  S
C145        O151   1.257       .  A
C145        O153   1.258       .  A
C145       C1188   1.469       .  S
O146        C154   1.266       .  A
O147        C154   1.260       .  A
C148        O155   1.261       .  A
C148        O149   1.261       .  A
C148       C1140   1.485       .  S
C150        O152   1.255       .  A
C150        O156   1.265       .  A
C150        C404   1.476       .  S
C154       C1164   1.481       .  S
In157       O159   2.226       .  S
In157       O160   2.276       .  S
In157       O168   2.263       .  S
In157       O162   2.243       .  S
In157       O164   2.228       .  S
In157       O165   2.252       .  S
In157       O166   2.245       .  S
In157       O169   2.274       .  S
C158        O164   1.261       .  A
C158        O166   1.259       .  A
C158       C1125   1.470       .  S
O159        C167   1.256       .  A
O160        C167   1.263       .  A
C161        O168   1.264       .  A
C161        O162   1.262       .  A
C161       C1200   1.488       .  S
C163        O165   1.253       .  A
C163        O169   1.263       .  A
C163        C452   1.479   1_554  S
C167       C1113   1.476   1_655  S
In170       O172   2.236       .  S
In170       O173   2.257       .  S
In170       O181   2.214       .  S
In170       O175   2.280       .  S
In170       O177   2.237       .  S
In170       O178   2.265       .  S
In170       O179   2.215       .  S
In170       O182   2.252       .  S
C171        O177   1.260       .  A
C171        O179   1.261       .  A
C171       C1128   1.468       .  S
O172        C180   1.262       .  A
O173        C180   1.264       .  A
C174        O181   1.256       .  A
C174        O175   1.264       .  A
C174       C1101   1.477   1_655  S
C176        O178   1.264       .  A
C176        O182   1.253       .  A
C176        C414   1.477   1_554  S
C180       C1176   1.485       .  S
In183       O185   2.224       .  S
In183       O186   2.281       .  S
In183       O194   2.261       .  S
In183       O188   2.229       .  S
In183       O190   2.230       .  S
In183       O191   2.253       .  S
In183       O192   2.245       .  S
In183       O195   2.261       .  S
C184        O190   1.259       .  A
C184        O192   1.260       .  A
C184       C1092   1.473       .  S
O185        C193   1.256       .  A
O186        C193   1.262       .  A
C187        O194   1.265       .  A
C187        O188   1.261       .  A
C187       C1137   1.485       .  S
C189        O191   1.254       .  A
C189        O195   1.262       .  A
C189        C464   1.477   1_554  S
C193       C1104   1.479       .  S
In196       O198   2.223       .  S
In196       O199   2.269       .  S
In196       O207   2.239       .  S
In196       O201   2.280       .  S
In196       O203   2.243       .  S
In196       O204   2.271       .  S
In196       O205   2.223       .  S
In196       O208   2.258       .  S
C197        O203   1.259       .  A
C197        O205   1.256       .  A
C197       C1089   1.470       .  S
O198        C206   1.262       .  A
O199        C206   1.268       .  A
C200        O207   1.255       .  A
C200        O201   1.261       .  A
C200       C1116   1.484       .  S
C202        O204   1.265       .  A
C202        O208   1.254       .  A
C202        C486   1.483   1_554  S
C206       C1152   1.487       .  S
In209       O211   2.232       .  S
In209       O212   2.269       .  S
In209       O220   2.257       .  S
In209       O214   2.230       .  S
In209       O216   2.232       .  S
In209       O217   2.255       .  S
In209       O218   2.242       .  S
In209       O221   2.263       .  S
C210        O216   1.257       .  A
C210        O218   1.257       .  A
C210       C1065   1.469       .  S
O211        C219   1.258       .  A
O212        C219   1.262       .  A
C213        O220   1.266       .  A
C213        O214   1.261       .  A
C213       C1053   1.482       .  S
C215        O217   1.253       .  A
C215        O221   1.263       .  A
C215        C392   1.477       .  S
C219       C1077   1.480       .  S
In222       O224   2.219       .  S
In222       O225   2.261       .  S
In222       O233   2.267       .  S
In222       O227   2.235       .  S
In222       O229   2.228       .  S
In222       O230   2.254       .  S
In222       O231   2.231       .  S
In222       O234   2.247       .  S
C223        O229   1.257       .  A
C223        O231   1.257       .  A
C223       C1041   1.467       .  S
O224        C232   1.261       .  A
O225        C232   1.266       .  A
C226        O233   1.261       .  A
C226        O227   1.257       .  A
C226       C1080   1.477       .  S
C228        O230   1.265       .  A
C228        O234   1.254       .  A
C228        C378   1.474       .  S
C232       C1029   1.483       .  S
In235       O237   2.269       .  S
In235       O238   2.229       .  S
In235       O246   2.222       .  S
In235       O240   2.281       .  S
In235       O242   2.243       .  S
In235       O243   2.275       .  S
In235       O244   2.228       .  S
In235       O247   2.259       .  S
C236        O242   1.257       .  A
C236        O244   1.256       .  A
C236       C1068   1.468   1_545  S
O237        C245   1.266       .  A
O238        C245   1.262       .  A
C239        O246   1.257       .  A
C239        O240   1.265       .  A
C239       C1017   1.482       .  S
C241        O243   1.265       .  A
C241        O247   1.254       .  A
C241        C318   1.484       .  S
C245       C1005   1.488       .  S
In248       O250   2.226       .  S
In248       O251   2.278       .  S
In248       O259   2.258       .  S
In248       O253   2.235       .  S
In248       O255   2.229       .  S
In248       O256   2.262       .  S
In248       O257   2.222       .  S
In248       O260   2.266       .  S
C249        O255   1.259       .  A
C249        O257   1.259       .  A
C249       C1044   1.467   1_545  S
O250        C258   1.256       .  A
O251        C258   1.264       .  A
C252        O259   1.266       .  A
C252        O253   1.262       .  A
C252        C993   1.485       .  S
C254        O256   1.253       .  A
C254        O260   1.265       .  A
C254        C356   1.481       .  S
C258       C1020   1.479       .  S
In261       O263   2.220       .  S
In261       O264   2.265       .  S
In261       O272   2.250       .  S
In261       O266   2.244       .  S
In261       O268   2.230       .  S
In261       O269   2.266       .  S
In261       O270   2.233       .  S
In261       O273   2.257       .  S
C262        O268   1.259       .  A
C262        O270   1.257       .  A
C262        C984   1.468       .  S
O263        C271   1.259       .  A
O264        C271   1.265       .  A
C265        O272   1.263       .  A
C265        O266   1.261       .  A
C265       C1056   1.483       .  S
C267        O269   1.255       .  A
C267        O273   1.264       .  A
C267        C476   1.480       .  S
C271        C969   1.479       .  S
In274       O276   2.230       .  S
In274       O277   2.260       .  S
In274       O285   2.264       .  S
In274       O279   2.216       .  S
In274       O281   2.236       .  S
In274       O282   2.258       .  S
In274       O283   2.221       .  S
In274       O286   2.251       .  S
C275        O281   1.257       .  A
C275        O283   1.257       .  A
C275        C981   1.462       .  S
O276        C284   1.260       .  A
O277        C284   1.264       .  A
C278        O285   1.263       .  A
C278        O279   1.258       .  A
C278        C957   1.475       .  S
C280        O282   1.265       .  A
C280        O286   1.255       .  A
C280        C426   1.479       .  S
C284       C1032   1.477       .  S
In287       O289   2.231       .  S
In287       O290   2.262       .  S
In287       O298   2.264       .  S
In287       O292   2.237       .  S
In287       O294   2.204       .  S
In287       O295   2.265       .  S
In287       O296   2.248       .  S
In287       O299   2.251       .  S
C288        O294   1.256       .  A
C288        O296   1.259       .  A
C288        C945   1.466       .  S
O289        C297   1.259       .  A
O290        C297   1.265       .  A
C291        O298   1.264       .  A
C291        O292   1.259       .  A
C291        C996   1.482       .  S
C293        O295   1.254       .  A
C293        O299   1.265       .  A
C293        C440   1.479       .  S
C297        C960   1.474   1_545  S
In300       O302   2.238       .  S
In300       O303   2.257       .  S
In300       O311   2.217       .  S
In300       O305   2.285       .  S
In300       O307   2.244       .  S
In300       O308   2.272       .  S
In300       O309   2.208       .  S
In300       O312   2.263       .  S
C301        O307   1.259       .  A
C301        O309   1.259       .  A
C301        C948   1.467       .  S
O302        C310   1.262       .  A
O303        C310   1.266       .  A
C304        O311   1.256       .  A
C304        O305   1.266       .  A
C304        C972   1.480   1_545  S
C306        O308   1.264       .  A
C306        O312   1.254       .  A
C306        C498   1.485       .  S
C310       C1008   1.485       .  S
C313        C314   1.551       .  S
C313        C319   1.537       .  S
C313        C317   1.542       .  S
C313        C933   1.542       .  S
C314        H321   1.079       .  S
C314        C315   1.376       .  D
C315        C924   1.510   1_545  S
C315        C316   1.555       .  S
C316        C320   1.544       .  S
C316        C318   1.546       .  S
C316        H322   1.110       .  S
C317        H323   1.087       .  S
C317        C318   1.361       .  D
C319        H324   1.087       .  S
C319        C320   1.358       .  D
C325        C326   1.553       .  S
C325        C331   1.533       .  S
C325        C329   1.537       .  S
C325        C936   1.538       .  S
C326        H333   1.083       .  S
C326        C327   1.381       .  D
C327        C909   1.523       .  S
C327        C328   1.560       .  S
C328        C332   1.547       .  S
C328        C330   1.545       .  S
C328        H334   1.110       .  S
C329        H335   1.087       .  S
C329        C330   1.360       .  D
C331        H336   1.087       .  S
C331        C332   1.357       .  D
C332        C511   1.479       .  S
C337        C338   1.556       .  S
C337        C343   1.534       .  S
C337        C341   1.533       .  S
C337        C897   1.541       .  S
C338        H345   1.082       .  S
C338        C339   1.384       .  D
C339        C912   1.523   1_655  S
C339        C340   1.557       .  S
C340        C344   1.545       .  S
C340        C342   1.546       .  S
C340        H346   1.110       .  S
C341        H347   1.087       .  S
C341        C342   1.359       .  D
C342        C550   1.477       .  S
C343        H348   1.087       .  S
C343        C344   1.357       .  D
C349        C350   1.559       .  S
C349        C355   1.537       .  S
C349        C353   1.536       .  S
C349        C900   1.547       .  S
C350        H357   1.079       .  S
C350        C351   1.384       .  D
C351        C888   1.523   1_545  S
C351        C352   1.555       .  S
C352        C356   1.546       .  S
C352        C354   1.546       .  S
C352        H358   1.110       .  S
C353        H359   1.087       .  S
C353        C354   1.359       .  D
C355        H360   1.087       .  S
C355        C356   1.357       .  D
C361        C362   1.552       .  S
C361        C367   1.538       .  S
C361        C365   1.537       .  S
C361        C873   1.544       .  S
C362        H369   1.079       .  S
C362        C363   1.379       .  D
C363        C861   1.515   1_655  S
C363        C364   1.554       .  S
C364        C368   1.545       .  S
C364        C366   1.545       .  S
C364        H370   1.109       .  S
C365        H371   1.087       .  S
C365        C366   1.357       .  D
C367        H372   1.087       .  S
C367        C368   1.361       .  D
C368        C537   1.481       .  S
C373        C374   1.555       .  S
C373        C379   1.537       .  S
C373        C377   1.534       .  S
C373        C876   1.538       .  S
C374        H381   1.083       .  S
C374        C375   1.383       .  D
C375        C885   1.522       .  S
C375        C376   1.557       .  S
C376        C380   1.545       .  S
C376        C378   1.542       .  S
C376        H382   1.109       .  S
C377        H383   1.087       .  S
C377        C378   1.356       .  D
C379        H384   1.087       .  S
C379        C380   1.359       .  D
C385        C386   1.543       .  S
C385        C391   1.540       .  S
C385        C389   1.548       .  S
C385        C849   1.539       .  S
C386        H393   1.085       .  S
C386        C387   1.373       .  D
C387        C921   1.508       .  S
C387        C388   1.546       .  S
C388        C392   1.544       .  S
C388        C390   1.543       .  S
C388        H394   1.111       .  S
C389        H395   1.085       .  S
C389        C390   1.365       .  D
C391        H396   1.085       .  S
C391        C392   1.360       .  D
C397        C398   1.540       .  S
C397        C403   1.540       .  S
C397        C401   1.545       .  S
C397        C852   1.539       .  S
C398        H405   1.085       .  S
C398        C399   1.374       .  D
C399        C864   1.513       .  S
C399        C400   1.552       .  S
C400        C404   1.544       .  S
C400        C402   1.547       .  S
C400        H406   1.110       .  S
C401        H407   1.085       .  S
C401        C402   1.365       .  D
C402        C524   1.484       .  S
C403        H408   1.084       .  S
C403        C404   1.359       .  D
C409        C410   1.551       .  S
C409        C415   1.534       .  S
C409        C413   1.536       .  S
C409        C837   1.533       .  S
C410        H417   1.083       .  S
C410        C411   1.380       .  D
C411        C825   1.514       .  S
C411        C412   1.556       .  S
C412        C416   1.542       .  S
C412        C414   1.543       .  S
C412        H418   1.109       .  S
C413        H419   1.086   1_556  S
C413        C414   1.358       .  D
C415        H420   1.087       .  S
C415        C416   1.356       .  D
C416        C563   1.475       .  S
C421        C422   1.551       .  S
C421        C427   1.535       .  S
C421        C425   1.538       .  S
C421        C840   1.539       .  S
C422        H429   1.079       .  S
C422        C423   1.378       .  D
C423        C816   1.511       .  S
C423        C424   1.554       .  S
C424        C428   1.543       .  S
C424        C426   1.544       .  S
C424        H430   1.109       .  S
C425        H431   1.087       .  S
C425        C426   1.360       .  D
C427        H432   1.087   1_556  S
C427        C428   1.358       .  D
C433        C434   1.551       .  S
C433        C439   1.531       .  S
C433        C437   1.532       .  S
C433        C801   1.535       .  S
C434        H441   1.083       .  S
C434        C435   1.382       .  D
C435        C789   1.520       .  S
C435        C436   1.562       .  S
C436        C440   1.547       .  S
C436        C438   1.547       .  S
C436        H442   1.109       .  S
C437        H443   1.087   1_556  S
C437        C438   1.359       .  D
C439        H444   1.087       .  S
C439        C440   1.356       .  D
C445        C446   1.554       .  S
C445        C451   1.541       .  S
C445        C449   1.539       .  S
C445        C804   1.543       .  S
C446        H453   1.077       .  S
C446        C447   1.378       .  D
C447        C828   1.513       .  S
C447        C448   1.550       .  S
C448        C452   1.542       .  S
C448        C450   1.542       .  S
C448        H454   1.110       .  S
C449        H455   1.087       .  S
C449        C450   1.360       .  D
C450        C576   1.479       .  S
C451        H456   1.087   1_556  S
C451        C452   1.359       .  D
C457        C458   1.553       .  S
C457        C463   1.537       .  S
C457        C461   1.535       .  S
C457        C777   1.537       .  S
C458        H465   1.082       .  S
C458        C459   1.381       .  D
C459        C768   1.514       .  S
C459        C460   1.552       .  S
C460        C464   1.541       .  S
C460        C462   1.543       .  S
C460        H466   1.110       .  S
C461        H467   1.087       .  S
C461        C462   1.357       .  D
C462        C602   1.478       .  S
C463        H468   1.087   1_556  S
C463        C464   1.360       .  D
C469        C470   1.552       .  S
C469        C475   1.537       .  S
C469        C473   1.536       .  S
C469        C780   1.541       .  S
C470        H477   1.078       .  S
C470        C471   1.379       .  D
C471        C813   1.513       .  S
C471        C472   1.554       .  S
C472        C476   1.544       .  S
C472        C474   1.544       .  S
C472        H478   1.110       .  S
C473        H479   1.087   1_556  S
C473        C474   1.358       .  D
C475        H480   1.087       .  S
C475        C476   1.359       .  D
C481        C482   1.542       .  S
C481        C487   1.543       .  S
C481        C485   1.542       .  S
C481        C753   1.542       .  S
C482        H489   1.086       .  S
C482        C483   1.374       .  D
C483        C765   1.515       .  S
C483        C484   1.556       .  S
C484        C488   1.546       .  S
C484        C486   1.546       .  S
C484        H490   1.110       .  S
C485        H491   1.084   1_556  S
C485        C486   1.362       .  D
C487        H492   1.085       .  S
C487        C488   1.362       .  D
C488        C589   1.481       .  S
C493        C494   1.544       .  S
C493        C499   1.544       .  S
C493        C497   1.543       .  S
C493        C756   1.544       .  S
C494        H501   1.085       .  S
C494        C495   1.377       .  D
C495        C792   1.520       .  S
C495        C496   1.554       .  S
C496        C500   1.542       .  S
C496        C498   1.546       .  S
C496        H502   1.110       .  S
C497        H503   1.084       .  S
C497        C498   1.362       .  D
C499        H504   1.085   1_556  S
C499        C500   1.362       .  D
In505       O507   2.227       .  S
In505       O508   2.270       .  S
In505       O516   2.283       .  S
In505       O510   2.220       .  S
In505       O512   2.192       .  S
In505       O513   2.257       .  S
In505       O514   2.268       .  S
In505       O517   2.253       .  S
C506        O512   1.255       .  A
C506        O514   1.260       .  A
C506        C744   1.466       .  S
O507        C515   1.259       .  A
O508        C515   1.264       .  A
C509        O516   1.267       .  A
C509        O510   1.257       .  A
C509        C717   1.483       .  S
C511        O513   1.254       .  A
C511        O517   1.264       .  A
C515        C729   1.481       .  S
In518       O520   2.270       .  S
In518       O521   2.244       .  S
In518       O529   2.220       .  S
In518       O523   2.281       .  S
In518       O525   2.246       .  S
In518       O526   2.273       .  S
In518       O527   2.230       .  S
In518       O530   2.260       .  S
C519        O525   1.257       .  A
C519        O527   1.257       .  A
C519        C705   1.470       .  S
O520        C528   1.264       .  A
O521        C528   1.261       .  A
C522        O529   1.258       .  A
C522        O523   1.265       .  A
C522        C732   1.481       .  S
C524        O526   1.264       .  A
C524        O530   1.255       .  A
C528        C693   1.488       .  S
In531       O533   2.231       .  S
In531       O534   2.272       .  S
In531       O542   2.262       .  S
In531       O536   2.237       .  S
In531       O538   2.232       .  S
In531       O539   2.261       .  S
In531       O540   2.249       .  S
In531       O543   2.262       .  S
C532        O538   1.256       .  A
C532        O540   1.259       .  A
C532        C708   1.473   1_655  S
O533        C541   1.259       .  A
O534        C541   1.262       .  A
C535        O542   1.265       .  A
C535        O536   1.261       .  A
C535        C669   1.483       .  S
C537        O539   1.255       .  A
C537        O543   1.263       .  A
C541        C684   1.478       .  S
In544       O546   2.230       .  S
In544       O547   2.263       .  S
In544       O555   2.210       .  S
In544       O549   2.274       .  S
In544       O551   2.213       .  S
In544       O552   2.248       .  S
In544       O553   2.249       .  S
In544       O556   2.259       .  S
C545        O551   1.258       .  A
C545        O553   1.258       .  A
C545        C741   1.469   1_655  S
O546        C554   1.260       .  A
O547        C554   1.264       .  A
C548        O555   1.258       .  A
C548        O549   1.265       .  A
C548        C681   1.476       .  S
C550        O552   1.263       .  A
C550        O556   1.254       .  A
C554        C660   1.479       .  S
In557       O559   2.212       .  S
In557       O560   2.286       .  S
In557       O568   2.261       .  S
In557       O562   2.227       .  S
In557       O564   2.227       .  S
In557       O565   2.257       .  S
In557       O566   2.230       .  S
In557       O569   2.251       .  S
C558        O564   1.258       .  A
C558        O566   1.259       .  A
C558        C645   1.467       .  S
O559        C567   1.257       .  A
O560        C567   1.265       .  A
C561        O568   1.266       .  A
C561        O562   1.261       .  A
C561        C672   1.482       .  S
C563        O565   1.254       .  A
C563        O569   1.263       .  A
C567        C633   1.481   1_655  S
In570       O572   2.261       .  S
In570       O573   2.232       .  S
In570       O581   2.233       .  S
In570       O575   2.275       .  S
In570       O577   2.240       .  S
In570       O578   2.266       .  S
In570       O579   2.219       .  S
In570       O582   2.259       .  S
C571        O577   1.259       .  A
C571        O579   1.258       .  A
C571        C648   1.467       .  S
O572        C580   1.266       .  A
O573        C580   1.261       .  A
C574        O581   1.258       .  A
C574        O575   1.263       .  A
C574        C621   1.482   1_655  S
C576        O578   1.263       .  A
C576        O582   1.253       .  A
C580        C657   1.482       .  S
In583       O585   2.227       .  S
In583       O586   2.274       .  S
In583       O594   2.256       .  S
In583       O588   2.242       .  S
In583       O590   2.240       .  S
In583       O591   2.258       .  S
In583       O592   2.235       .  S
In583       O595   2.261       .  S
C584        O590   1.257       .  A
C584        O592   1.256       .  A
C584        C609   1.466       .  S
O585        C593   1.259       .  A
O586        C593   1.264       .  A
C587        O594   1.265       .  A
C587        O588   1.261       .  A
C587        C720   1.484       .  S
C589        O591   1.255       .  A
C589        O595   1.263       .  A
C593        C624   1.481       .  S
In596       O598   2.233       .  S
In596       O599   2.265       .  S
In596       O607   2.224       .  S
In596       O601   2.291       .  S
In596       O603   2.218       .  S
In596       O604   2.257       .  S
In596       O605   2.249       .  S
In596       O608   2.260       .  S
C597        O603   1.255       .  A
C597        O605   1.259       .  A
C597        C612   1.468       .  S
O598        C606   1.261       .  A
O599        C606   1.268       .  A
C600        O607   1.257       .  A
C600        O601   1.262       .  A
C600        C636   1.486       .  S
C602        O604   1.263       .  A
C602        O608   1.254       .  A
C606        C696   1.486       .  S
C609        C610   1.403       .  A
C609        C614   1.407       .  A
C610        C611   1.395       .  A
C610        H615   1.084       .  S
C611        C612   1.407       .  A
C611        O616   1.372       .  S
C612        C613   1.405       .  A
C613        C614   1.393       .  A
C613        H617   1.084       .  S
C614        O618   1.372       .  S
O616        H620   0.992       .  S
O618        H619   0.993       .  S
C621        C622   1.404       .  A
C621        C626   1.411       .  A
C622        C623   1.399       .  A
C622        H627   1.084       .  S
C623        C624   1.408       .  A
C623        O628   1.371       .  S
C624        C625   1.405       .  A
C625        C626   1.405       .  A
C625        H629   1.083       .  S
C626        O630   1.371       .  S
O628        H632   0.992       .  S
O630        H631   0.991       .  S
C633        C634   1.406       .  A
C633        C638   1.409       .  A
C634        C635   1.410       .  A
C634        H639   1.083       .  S
C635        C636   1.413       .  A
C635        O640   1.372       .  S
C636        C637   1.404       .  A
C637        C638   1.394       .  A
C637        H641   1.084       .  S
C638        O642   1.372       .  S
O640        H644   0.992       .  S
O642        H643   0.991       .  S
C645        C646   1.403       .  A
C645        C650   1.408       .  A
C646        C647   1.395       .  A
C646        H651   1.084       .  S
C647        C648   1.409       .  A
C647        O652   1.372       .  S
C648        C649   1.403       .  A
C649        C650   1.392       .  A
C649        H653   1.084       .  S
C650        O654   1.372       .  S
O652        H656   0.992       .  S
O654        H655   0.992       .  S
C657        C658   1.404       .  A
C657        C662   1.411       .  A
C658        C659   1.401       .  A
C658        H663   1.084       .  S
C659        C660   1.410       .  A
C659        O664   1.372       .  S
C660        C661   1.404       .  A
C661        C662   1.403       .  A
C661        H665   1.084       .  S
C662        O666   1.372       .  S
O664        H668   0.991       .  S
O666        H667   0.992       .  S
C669        C670   1.404       .  A
C669        C674   1.412       .  A
C670        C671   1.401       .  A
C670        H675   1.084       .  S
C671        C672   1.412       .  A
C671        O676   1.372       .  S
C672        C673   1.404       .  A
C673        C674   1.402       .  A
C673        H677   1.084       .  S
C674        O678   1.372       .  S
O676        H680   0.992       .  S
O678        H679   0.992       .  S
C681        C682   1.404       .  A
C681        C686   1.409       .  A
C682        C683   1.404       .  A
C682        H687   1.084       .  S
C683        C684   1.411       .  A
C683        O688   1.371       .  S
C684        C685   1.402       .  A
C685        C686   1.397       .  A
C685        H689   1.084       .  S
C686        O690   1.372       .  S
O688        H692   0.992       .  S
O690        H691   0.992       .  S
C693        C694   1.406       .  A
C693        C698   1.412       .  A
C694        C695   1.404       .  A
C694        H699   1.084       .  S
C695        C696   1.413       .  A
C695        O700   1.372       .  S
C696        C697   1.404       .  A
C697        C698   1.404       .  A
C697        H701   1.083       .  S
C698        O702   1.372       .  S
O700        H704   0.991       .  S
O702        H703   0.992       .  S
C705        C706   1.402       .  A
C705        C710   1.409       .  A
C706        C707   1.395       .  A
C706        H711   1.084       .  S
C707        C708   1.410       .  A
C707        O712   1.372       .  S
C708        C709   1.404       .  A
C709        C710   1.397       .  A
C709        H713   1.084       .  S
C710        O714   1.372       .  S
O712        H716   0.993       .  S
O714        H715   0.991       .  S
C717        C718   1.404       .  A
C717        C722   1.411       .  A
C718        C719   1.405       .  A
C718        H723   1.083       .  S
C719        C720   1.413       .  A
C719        O724   1.371       .  S
C720        C721   1.403       .  A
C721        C722   1.400       .  A
C721        H725   1.084       .  S
C722        O726   1.372       .  S
O724        H728   0.992       .  S
O726        H727   0.991       .  S
C729        C730   1.403       .  A
C729        C734   1.411       .  A
C730        C731   1.398       .  A
C730        H735   1.084       .  S
C731        C732   1.409       .  A
C731        O736   1.373       .  S
C732        C733   1.406       .  A
C733        C734   1.406       .  A
C733        H737   1.084       .  S
C734        O738   1.371       .  S
O736        H740   0.994       .  S
O738        H739   0.993       .  S
C741        C742   1.400       .  A
C741        C746   1.411       .  A
C742        C743   1.387       .  A
C742        H747   1.084       .  S
C743        C744   1.408       .  A
C743        O748   1.372       .  S
C744        C745   1.403       .  A
C745        C746   1.401       .  A
C745        H749   1.084       .  S
C746        O750   1.372       .  S
O748        H752   0.991       .  S
O750        H751   0.992       .  S
C753        C754   1.409       .  A
C753        C758   1.414       .  A
C754        C755   1.406       .  A
C754        H759   1.082       .  S
C755        C756   1.415       .  A
C755        O760   1.374       .  S
C756        C757   1.410       .  A
C757        C758   1.407       .  A
C757        H761   1.082   1_556  S
C758        O762   1.374   1_556  S
O760        H764   0.993       .  S
O762        H763   0.992       .  S
C765        C766   1.410       .  A
C765        C770   1.414       .  A
C766        C767   1.413       .  A
C766        H771   1.083       .  S
C767        C768   1.415       .  A
C767        O772   1.372       .  S
C768        C769   1.409       .  A
C769        C770   1.412       .  A
C769        H773   1.083       .  S
C770        O774   1.371   1_556  S
O772        H776   0.993       .  S
O774        H775   0.992       .  S
C777        C778   1.411       .  A
C777        C782   1.414       .  A
C778        C779   1.414       .  A
C778        H783   1.079       .  S
C779        C780   1.419       .  A
C779        O784   1.368       .  S
C780        C781   1.407       .  A
C781        C782   1.390       .  A
C781        H785   1.084       .  S
C782        O786   1.374       .  S
O784        H788   0.992       .  S
O786        H787   0.993       .  S
C789        C790   1.410       .  A
C789        C794   1.417       .  A
C790        C791   1.411       .  A
C790        H795   1.083       .  S
C791        C792   1.416       .  A
C791        O796   1.371       .  S
C792        C793   1.411       .  A
C793        C794   1.415       .  A
C793        H797   1.083       .  S
C794        O798   1.371   1_556  S
O796        H800   0.992       .  S
O798        H799   0.992       .  S
C801        C802   1.409       .  A
C801        C806   1.415       .  A
C802        C803   1.414       .  A
C802        H807   1.079       .  S
C803        C804   1.421       .  A
C803        O808   1.367       .  S
C804        C805   1.406       .  A
C805        C806   1.390       .  A
C805        H809   1.084       .  S
C806        O810   1.374       .  S
O808        H812   0.992       .  S
O810        H811   0.992       .  S
C813        C814   1.409       .  A
C813        C818   1.415       .  A
C814        C815   1.414       .  A
C814        H819   1.083       .  S
C815        C816   1.413       .  A
C815        O820   1.371       .  S
C816        C817   1.407       .  A
C817        C818   1.410       .  A
C817        H821   1.083   1_556  S
C818        O822   1.372   1_556  S
O820        H824   0.993       .  S
O822        H823   0.992   1_554  S
C825        C826   1.409       .  A
C825        C830   1.415       .  A
C826        C827   1.412       .  A
C826        H831   1.083       .  S
C827        C828   1.415       .  A
C827        O832   1.372   1_556  S
C828        C829   1.408       .  A
C829        C830   1.413       .  A
C829        H833   1.083       .  S
C830        O834   1.372       .  S
O832        H836   0.992   1_554  S
O834        H835   0.992       .  S
C837        C838   1.410       .  A
C837        C842   1.413       .  A
C838        C839   1.414       .  A
C838        H843   1.079       .  S
C839        C840   1.419       .  A
C839        O844   1.367       .  S
C840        C841   1.406       .  A
C841        C842   1.387       .  A
C841        H845   1.084       .  S
C842        O846   1.374       .  S
O844        H848   0.992       .  S
O846        H847   0.992       .  S
C849        C850   1.407       .  A
C849        C854   1.415       .  A
C850        C851   1.406       .  A
C850        H855   1.082       .  S
C851        C852   1.415       .  A
C851        O856   1.374       .  S
C852        C853   1.408       .  A
C853        C854   1.406       .  A
C853        H857   1.083       .  S
C854        O858   1.374       .  S
O856        H860   0.992       .  S
O858        H859   0.992       .  S
C861        C862   1.409       .  A
C861        C866   1.416       .  A
C862        C863   1.408       .  A
C862        H867   1.083       .  S
C863        C864   1.415       .  A
C863        O868   1.371       .  S
C864        C865   1.409       .  A
C865        C866   1.414       .  A
C865        H869   1.083       .  S
C866        O870   1.371       .  S
O868        H872   0.992       .  S
O870        H871   0.992       .  S
C873        C874   1.406       .  A
C873        C878   1.421       .  A
C874        C875   1.390       .  A
C874        H879   1.084       .  S
C875        C876   1.415       .  A
C875        O880   1.374       .  S
C876        C877   1.410       .  A
C877        C878   1.416       .  A
C877        H881   1.080       .  S
C878        O882   1.367       .  S
O880        H884   0.993       .  S
O882        H883   0.992       .  S
C885        C886   1.410       .  A
C885        C890   1.417       .  A
C886        C887   1.415       .  A
C886        H891   1.083       .  S
C887        C888   1.417       .  A
C887        O892   1.371       .  S
C888        C889   1.411       .  A
C889        C890   1.416       .  A
C889        H893   1.083       .  S
C890        O894   1.371       .  S
O892        H896   0.992       .  S
O894        H895   0.992       .  S
C897        C898   1.411       .  A
C897        C902   1.415       .  A
C898        C899   1.418       .  A
C898        H903   1.080       .  S
C899        C900   1.418       .  A
C899        O904   1.368       .  S
C900        C901   1.408       .  A
C901        C902   1.392       .  A
C901        H905   1.084       .  S
C902        O906   1.374       .  S
O904        H908   0.990       .  S
O906        H907   0.993       .  S
C909        C910   1.410       .  A
C909        C914   1.416       .  A
C910        C911   1.414       .  A
C910        H915   1.083       .  S
C911        C912   1.416       .  A
C911        O916   1.371       .  S
C912        C913   1.412       .  A
C913        C914   1.417       .  A
C913        H917   1.083       .  S
C914        O918   1.371       .  S
O916        H920   0.992       .  S
O918        H919   0.992       .  S
C921        C922   1.409       .  A
C921        C926   1.412       .  A
C922        C923   1.412       .  A
C922        H927   1.083       .  S
C923        C924   1.413       .  A
C923        O928   1.371       .  S
C924        C925   1.409       .  A
C925        C926   1.411       .  A
C925        H929   1.083       .  S
C926        O930   1.372       .  S
O928        H932   0.993       .  S
O930        H931   0.992       .  S
C933        C934   1.406       .  A
C933        C938   1.420       .  A
C934        C935   1.389       .  A
C934        H939   1.084       .  S
C935        C936   1.414       .  A
C935        O940   1.374       .  S
C936        C937   1.411       .  A
C937        C938   1.415       .  A
C937        H941   1.079       .  S
C938        O942   1.368       .  S
O940        H944   0.991       .  S
O942        H943   0.992       .  S
C945        C946   1.404       .  A
C945        C950   1.408       .  A
C946        C947   1.398       .  A
C946        H951   1.084       .  S
C947        C948   1.409       .  A
C947        O952   1.372       .  S
C948        C949   1.401       .  A
C949        C950   1.389       .  A
C949        H953   1.084       .  S
C950        O954   1.373       .  S
O952        H956   0.991       .  S
O954        H955   0.993       .  S
C957        C958   1.404       .  A
C957        C962   1.407       .  A
C958        C959   1.402       .  A
C958        H963   1.084       .  S
C959        C960   1.410       .  A
C959        O964   1.371       .  S
C960        C961   1.401       .  A
C961        C962   1.400       .  A
C961        H965   1.084       .  S
C962        O966   1.371       .  S
O964        H968   0.994       .  S
O966        H967   0.993       .  S
C969        C970   1.403       .  A
C969        C974   1.410       .  A
C970        C971   1.398       .  A
C970        H975   1.084       .  S
C971        C972   1.410       .  A
C971        O976   1.372       .  S
C972        C973   1.404       .  A
C973        C974   1.404       .  A
C973        H977   1.082       .  S
C974        O978   1.371       .  S
O976        H980   0.992       .  S
O978        H979   0.991       .  S
C981        C982   1.401       .  A
C981        C986   1.406       .  A
C982        C983   1.395       .  A
C982        H987   1.084       .  S
C983        C984   1.410       .  A
C983        O988   1.372       .  S
C984        C985   1.403       .  A
C985        C986   1.392       .  A
C985        H989   1.084       .  S
C986        O990   1.372       .  S
O988        H992   0.990       .  S
O990        H991   0.993       .  S
C993        C994   1.405       .  A
C993        C998   1.412       .  A
C994        C995   1.402       .  A
C994        H999   1.084       .  S
C995        C996   1.411       .  A
C995       O1000   1.372       .  S
C996        C997   1.404       .  A
C997        C998   1.402       .  A
C997       H1001   1.084       .  S
C998       O1002   1.371       .  S
O1000      H1004   0.991       .  S
O1002      H1003   0.992       .  S
C1005      C1006   1.406       .  A
C1005      C1010   1.412       .  A
C1006      C1007   1.401       .  A
C1006      H1011   1.084       .  S
C1007      C1008   1.410       .  A
C1007      O1012   1.372       .  S
C1008      C1009   1.406       .  A
C1009      C1010   1.406       .  A
C1009      H1013   1.084       .  S
C1010      O1014   1.372       .  S
O1012      H1016   0.993       .  S
O1014      H1015   0.992       .  S
C1017      C1018   1.405       .  A
C1017      C1022   1.410       .  A
C1018      C1019   1.397       .  A
C1018      H1023   1.084       .  S
C1019      C1020   1.409       .  A
C1019      O1024   1.372       .  S
C1020      C1021   1.405       .  A
C1021      C1022   1.405       .  A
C1021      H1025   1.084       .  S
C1022      O1026   1.370       .  S
O1024      H1028   0.990       .  S
O1026      H1027   0.992       .  S
C1029      C1030   1.406       .  A
C1029      C1034   1.411       .  A
C1030      C1031   1.397       .  A
C1030      H1035   1.084       .  S
C1031      C1032   1.407       .  A
C1031      O1036   1.372       .  S
C1032      C1033   1.404       .  A
C1033      C1034   1.403       .  A
C1033      H1037   1.084       .  S
C1034      O1038   1.371       .  S
O1036      H1040   0.991       .  S
O1038      H1039   0.992       .  S
C1041      C1042   1.403       .  A
C1041      C1046   1.408       .  A
C1042      C1043   1.394       .  A
C1042      H1047   1.084       .  S
C1043      C1044   1.408       .  A
C1043      O1048   1.372       .  S
C1044      C1045   1.403       .  A
C1045      C1046   1.393       .  A
C1045      H1049   1.084       .  S
C1046      O1050   1.372       .  S
O1048      H1052   0.990       .  S
O1050      H1051   0.991       .  S
C1053      C1054   1.404       .  A
C1053      C1058   1.411       .  A
C1054      C1055   1.402       .  A
C1054      H1059   1.084       .  S
C1055      C1056   1.411       .  A
C1055      O1060   1.371       .  S
C1056      C1057   1.405       .  A
C1057      C1058   1.400       .  A
C1057      H1061   1.084       .  S
C1058      O1062   1.372       .  S
O1060      H1064   0.991       .  S
O1062      H1063   0.991       .  S
C1065      C1066   1.403       .  A
C1065      C1070   1.409       .  A
C1066      C1067   1.395       .  A
C1066      H1071   1.084       .  S
C1067      C1068   1.408       .  A
C1067      O1072   1.373       .  S
C1068      C1069   1.402       .  A
C1069      C1070   1.395       .  A
C1069      H1073   1.084       .  S
C1070      O1074   1.372       .  S
O1072      H1076   0.992       .  S
O1074      H1075   0.991       .  S
C1077      C1078   1.405       .  A
C1077      C1082   1.409       .  A
C1078      C1079   1.404       .  A
C1078      H1083   1.084       .  S
C1079      C1080   1.409       .  A
C1079      O1084   1.371       .  S
C1080      C1081   1.403       .  A
C1081      C1082   1.401       .  A
C1081      H1085   1.084       .  S
C1082      O1086   1.373       .  S
O1084      H1088   0.992       .  S
O1086      H1087   0.991       .  S
C1089      C1090   1.403       .  A
C1089      C1094   1.409       .  A
C1090      C1091   1.397       .  A
C1090      H1095   1.084       .  S
C1091      C1092   1.409       .  A
C1091      O1096   1.371       .  S
C1092      C1093   1.403       .  A
C1093      C1094   1.395       .  A
C1093      H1097   1.084       .  S
C1094      O1098   1.373       .  S
O1096      H1100   0.992       .  S
O1098      H1099   0.992       .  S
C1101      C1102   1.403       .  A
C1101      C1106   1.410       .  A
C1102      C1103   1.396       .  A
C1102      H1107   1.084       .  S
C1103      C1104   1.409       .  A
C1103      O1108   1.372       .  S
C1104      C1105   1.405       .  A
C1105      C1106   1.405       .  A
C1105      H1109   1.083       .  S
C1106      O1110   1.371       .  S
O1108      H1112   0.992       .  S
O1110      H1111   0.992   1_554  S
C1113      C1114   1.402       .  A
C1113      C1118   1.407       .  A
C1114      C1115   1.405       .  A
C1114      H1119   1.083       .  S
C1115      C1116   1.412       .  A
C1115      O1120   1.371   1_554  S
C1116      C1117   1.406       .  A
C1117      C1118   1.401       .  A
C1117      H1121   1.084       .  S
C1118      O1122   1.373       .  S
O1120      H1124   0.991       .  S
O1122      H1123   0.992       .  S
C1125      C1126   1.405       .  A
C1125      C1130   1.406       .  A
C1126      C1127   1.399       .  A
C1126      H1131   1.084       .  S
C1127      C1128   1.410       .  A
C1127      O1132   1.373       .  S
C1128      C1129   1.401       .  A
C1129      C1130   1.393       .  A
C1129      H1133   1.084       .  S
C1130      O1134   1.372       .  S
O1132      H1136   0.992       .  S
O1134      H1135   0.992       .  S
C1137      C1138   1.405       .  A
C1137      C1142   1.412       .  A
C1138      C1139   1.403       .  A
C1138      H1143   1.083       .  S
C1139      C1140   1.412       .  A
C1139      O1144   1.371       .  S
C1140      C1141   1.404       .  A
C1141      C1142   1.400       .  A
C1141      H1145   1.084       .  S
C1142      O1146   1.372       .  S
O1144      H1148   0.992       .  S
O1146      H1147   0.992       .  S
C1149      C1150   1.407       .  A
C1149      C1154   1.408       .  A
C1150      C1151   1.407       .  A
C1150      H1155   1.084       .  S
C1151      C1152   1.412       .  A
C1151      O1156   1.371       .  S
C1152      C1153   1.405       .  A
C1153      C1154   1.401       .  A
C1153      H1157   1.084       .  S
C1154      O1158   1.372       .  S
O1156      H1160   0.992       .  S
O1158      H1159   0.992       .  S
C1161      C1162   1.406       .  A
C1161      C1166   1.411       .  A
C1162      C1163   1.407       .  A
C1162      H1167   1.083       .  S
C1163      C1164   1.410       .  A
C1163      O1168   1.371       .  S
C1164      C1165   1.403       .  A
C1165      C1166   1.398       .  A
C1165      H1169   1.084       .  S
C1166      O1170   1.373       .  S
O1168      H1172   0.990       .  S
O1170      H1171   0.990       .  S
C1173      C1174   1.406       .  A
C1173      C1178   1.410       .  A
C1174      C1175   1.403       .  A
C1174      H1179   1.083       .  S
C1175      C1176   1.411       .  A
C1175      O1180   1.372       .  S
C1176      C1177   1.406       .  A
C1177      C1178   1.401       .  A
C1177      H1181   1.084       .  S
C1178      O1182   1.371       .  S
O1180      H1184   0.993       .  S
O1182      H1183   0.991       .  S
C1185      C1186   1.404       .  A
C1185      C1190   1.408       .  A
C1186      C1187   1.395       .  A
C1186      H1191   1.084       .  S
C1187      C1188   1.409       .  A
C1187      O1192   1.372       .  S
C1188      C1189   1.402       .  A
C1189      C1190   1.393       .  A
C1189      H1193   1.084       .  S
C1190      O1194   1.373       .  S
O1192      H1196   0.991       .  S
O1194      H1195   0.993       .  S
C1197      C1198   1.405       .  A
C1197      C1202   1.413       .  A
C1198      C1199   1.402       .  A
C1198      H1203   1.083       .  S
C1199      C1200   1.411       .  A
C1199      O1204   1.371       .  S
C1200      C1201   1.406       .  A
C1201      C1202   1.404       .  A
C1201      H1205   1.083       .  S
C1202      O1206   1.371       .  S
O1204      H1208   0.992       .  S
O1206      H1207   0.992       .  S
C1209      C1210   1.401       .  A
C1209      C1214   1.409       .  A
C1210      C1211   1.392       .  A
C1210      H1215   1.084       .  S
C1211      C1212   1.407       .  A
C1211      O1216   1.373       .  S
C1212      C1213   1.404       .  A
C1213      C1214   1.398       .  A
C1213      H1217   1.084       .  S
C1214      O1218   1.371       .  S
O1216      H1220   0.992       .  S
O1218      H1219   0.992       .  S
C1221      C1222   1.403       .  A
C1221      C1226   1.410       .  A
C1222      C1223   1.395       .  A
C1222      H1227   1.084       .  S
C1223      C1224   1.411       .  A
C1223      O1228   1.372       .  S
C1224      C1225   1.405       .  A
C1225      C1226   1.405       .  A
C1225      H1229   1.083       .  S
C1226      O1230   1.372       .  S
O1228      H1232   0.990       .  S
O1230      H1231   0.993       .  S
C1233      C1234   1.401       .  A
C1233      C1238   1.408       .  A
C1234      C1235   1.395       .  A
C1234      H1239   1.084       .  S
C1235      C1236   1.409       .  A
C1235      O1240   1.371       .  S
C1236      C1237   1.403       .  A
C1237      C1238   1.394       .  A
C1237      H1241   1.084       .  S
C1238      O1242   1.372       .  S
O1240      H1244   0.992       .  S
O1242      H1243   0.991       .  S
C1245      C1246   1.405       .  A
C1245      C1250   1.412       .  A
C1246      C1247   1.398       .  A
C1246      H1251   1.084   1_554  S
C1247      C1248   1.411   1_565  A
C1247      O1252   1.373   1_554  S
C1248      C1249   1.405   1_545  A
C1249      C1250   1.404       .  A
C1249      H1253   1.084       .  S
C1250      O1254   1.371       .  S
O1252      H1256   0.992   1_565  S
O1254      H1255   0.990       .  S
C1257      C1258   1.402       .  A
C1257      C1262   1.409       .  A
C1258      C1259   1.396       .  A
C1258      H1263   1.084       .  S
C1259      C1260   1.410       .  A
C1259      O1264   1.373       .  S
C1260      C1261   1.404       .  A
C1261      C1262   1.404       .  A
C1261      H1265   1.084       .  S
C1262      O1266   1.369       .  S
O1264      H1268   0.992   1_565  S
O1266      H1267   0.990   1_554  S
C1269      C1270   1.404       .  A
C1269      C1274   1.408       .  A
C1270      C1271   1.395       .  A
C1270      H1275   1.084       .  S
C1271      C1272   1.409       .  A
C1271      O1276   1.372       .  S
C1272      C1273   1.402       .  A
C1273      C1274   1.393       .  A
C1273      H1277   1.084       .  S
C1274      O1278   1.371       .  S
O1276      H1280   0.992       .  S
O1278      H1279   0.992       .  S
C1281      C1282   1.406       .  A
C1281      C1286   1.408       .  A
C1282      C1283   1.405       .  A
C1282      H1287   1.084       .  S
C1283      C1284   1.413       .  A
C1283      O1288   1.371       .  S
C1284      C1285   1.405       .  A
C1285      C1286   1.399       .  A
C1285      H1289   1.083       .  S
C1286      O1290   1.373       .  S
O1288      H1292   0.991       .  S
O1290      H1291   0.993       .  S
C1293      C1294   1.407       .  A
C1293      C1298   1.410       .  A
C1294      C1295   1.401       .  A
C1294      H1299   1.084       .  S
C1295      C1296   1.408       .  A
C1295      O1300   1.372       .  S
C1296      C1297   1.406       .  A
C1297      C1298   1.400       .  A
C1297      H1301   1.084       .  S
C1298      O1302   1.371       .  S
O1300      H1304   0.992       .  S
O1302      H1303   0.991       .  S
C1305      C1306   1.403       .  A
C1305      C1310   1.410       .  A
C1306      C1307   1.396       .  A
C1306      H1311   1.084       .  S
C1307      C1308   1.410       .  A
C1307      O1312   1.372       .  S
C1308      C1309   1.406       .  A
C1309      C1310   1.406       .  A
C1309      H1313   1.084       .  S
C1310      O1314   1.370       .  S
O1312      H1316   0.991       .  S
O1314      H1315   0.992       .  S
C1317      C1318   1.407       .  A
C1317      C1322   1.411       .  A
C1318      C1319   1.403       .  A
C1318      H1323   1.084       .  S
C1319      C1320   1.410       .  A
C1319      O1324   1.371       .  S
C1320      C1321   1.404       .  A
C1321      C1322   1.401       .  A
C1321      H1325   1.084       .  S
C1322      O1326   1.372       .  S
O1324      H1328   0.992       .  S
O1326      H1327   0.992       .  S
C1329      C1330   1.402       .  A
C1329      C1334   1.409       .  A
C1330      C1331   1.394       .  A
C1330      H1335   1.084       .  S
C1331      C1332   1.409       .  A
C1331      O1336   1.371       .  S
C1332      C1333   1.404       .  A
C1333      C1334   1.397       .  A
C1333      H1337   1.084       .  S
C1334      O1338   1.372       .  S
O1336      H1340   0.992       .  S
O1338      H1339   0.991       .  S
C1341      C1342   1.406       .  A
C1341      C1346   1.412       .  A
C1342      C1343   1.406       .  A
C1342      H1347   1.083       .  S
C1343      C1344   1.412       .  A
C1343      O1348   1.372       .  S
C1344      C1345   1.403       .  A
C1345      C1346   1.399       .  A
C1345      H1349   1.084       .  S
C1346      O1350   1.372       .  S
O1348      H1352   0.992       .  S
O1350      H1351   0.992       .  S
C1353      C1354   1.403       .  A
C1353      C1358   1.410       .  A
C1354      C1355   1.398       .  A
C1354      H1359   1.084       .  S
C1355      C1356   1.409       .  A
C1355      O1360   1.372       .  S
C1356      C1357   1.404       .  A
C1357      C1358   1.405       .  A
C1357      H1361   1.084       .  S
C1358      O1362   1.371       .  S
O1360      H1364   0.991       .  S
O1362      H1363   0.992       .  S
C1365      C1366   1.403       .  A
C1365      C1370   1.407       .  A
C1366      C1367   1.397       .  A
C1366      H1371   1.084       .  S
C1367      C1368   1.407       .  A
C1367      O1372   1.373       .  S
C1368      C1369   1.402       .  A
C1369      C1370   1.392       .  A
C1369      H1373   1.084       .  S
C1370      O1374   1.372       .  S
O1372      H1376   0.991       .  S
O1374      H1375   0.991       .  S
