geometry optimzed in LAMMPS
_audit_creation_date              2020-11-30 
_audit_creation_method            'lammps2cif' 
_symmetry_space_group_name_H-M    'P1' 
_symmetry_Int_Tables_number       1 
_symmetry_cell_setting            triclinic 
loop_ 
_symmetry_equiv_pos_as_xyz 
  x,y,z 
_cell_length_a                    51.47251791 
_cell_length_b                    51.5731343922182 
_cell_length_c                    52.290613277107795 
_cell_angle_alpha                 90.08933142129563 
_cell_angle_beta                  90.55619035762112 
_cell_angle_gamma                 90.54343117595121 
loop_ 
_atom_site_label 
_atom_site_type_symbol 
_atom_site_fract_x 
_atom_site_fract_y 
_atom_site_fract_z 
_atom_site_charge 
C1          C  0.39603693  0.35093118  0.15871366     0.86800
C2          C  0.36860345  0.36202452  0.15412868    -0.53500
C3          C  0.34989791  0.35147656  0.16955364     0.09700
C4          C  0.36030201  0.33068622  0.18780330     0.20600
C5          C  0.40079937  0.35547308  0.18768210    -0.54200
C6          C  0.38182078  0.34505681  0.20278845     0.09800
C7          C  0.39269225  0.32154481  0.15591681    -0.53700
C8          C  0.37383861  0.31080681  0.17062284     0.10400
H9          H  0.36455174  0.37727559  0.14040994     0.14900
H10         H  0.34537547  0.32192594  0.20029875     0.00600
H11         H  0.41608867  0.36760695  0.19572847     0.15200
H12         H  0.40377074  0.31032344  0.14229828     0.15000
C13         C  0.34886435  0.39360013  0.34715209     0.86800
C14         C  0.35589458  0.36652144  0.35743480    -0.53500
C15         C  0.34531771  0.34656979  0.34359899     0.09700
C16         C  0.32937654  0.35537268  0.32024581     0.20600
C17         C  0.35858040  0.39279011  0.31924825    -0.54200
C18         C  0.34888898  0.37224628  0.30515762     0.09800
C19         C  0.31922331  0.39361565  0.34488671    -0.53700
C20         C  0.30862670  0.37389113  0.33088200     0.10400
H21         H  0.36920130  0.36340913  0.37336008     0.14900
H22         H  0.32091220  0.33923693  0.30889864     0.00600
H23         H  0.37363527  0.40552388  0.31199485     0.15200
H24         H  0.30769377  0.40744426  0.35535131     0.15000
C25         C  0.35065912  0.15472304  0.15955759     0.86800
C26         C  0.35833686  0.18235298  0.15087737    -0.53500
C27         C  0.34761553  0.20166673  0.16514027     0.09700
C28         C  0.33055676  0.19167864  0.18692667     0.20600
C29         C  0.35910417  0.15423823  0.18818178    -0.54200
C30         C  0.34888704  0.17414593  0.20238051     0.09800
C31         C  0.32094962  0.15446780  0.16012086    -0.53700
C32         C  0.31046483  0.17380806  0.17400960     0.10400
H33         H  0.37136332  0.18617372  0.13509847     0.14900
H34         H  0.32153211  0.20720471  0.19845173     0.00600
H35         H  0.37325020  0.14103414  0.19618079     0.15200
H36         H  0.30903231  0.14079477  0.14921706     0.15000
C37         C  0.39257115  0.19904299  0.35036438     0.86800
C38         C  0.36413284  0.19150380  0.35726756    -0.53500
C39         C  0.34592869  0.20269850  0.34154321     0.09700
C40         C  0.35750876  0.22032863  0.32106504     0.20600
C41         C  0.39448660  0.19130268  0.32202889    -0.54200
C42         C  0.37604147  0.20231532  0.30674639     0.09800
C43         C  0.39286656  0.22872919  0.35089849    -0.53700
C44         C  0.37441103  0.23987197  0.33604202     0.10400
H45         H  0.35858830  0.17757296  0.37172373     0.14900
H46         H  0.34275265  0.22968437  0.30856987     0.00600
H47         H  0.40837562  0.17737730  0.31492878     0.15200
H48         H  0.40530461  0.23995606  0.36377910     0.15000
C49         C  0.15564706  0.20002273  0.15822359     0.86800
C50         C  0.18319471  0.18937079  0.15272730    -0.53500
C51         C  0.20233557  0.20063667  0.16749869     0.09700
C52         C  0.19256528  0.22140888  0.18578401     0.20600
C53         C  0.15268837  0.19576807  0.18724717    -0.54200
C54         C  0.17221478  0.20673693  0.20170563     0.09800
C55         C  0.15854255  0.22933789  0.15462327    -0.53700
C56         C  0.17785504  0.24068012  0.16864733     0.10400
H57         H  0.18741643  0.17341173  0.14003278     0.14900
H58         H  0.20830926  0.23042658  0.19742525     0.00600
H59         H  0.13763768  0.18351019  0.19538580     0.15200
H60         H  0.14691196  0.24004590  0.14084900     0.15000
C61         C  0.19547843  0.16019068  0.34974045     0.86800
C62         C  0.18478015  0.18726561  0.35655384    -0.53500
C63         C  0.19578942  0.20697834  0.34285916     0.09700
C64         C  0.21603531  0.19805078  0.32355574     0.20600
C65         C  0.19026894  0.15843743  0.32041460    -0.54200
C66         C  0.20081700  0.17864719  0.30646941     0.09800
C67         C  0.22496839  0.16266901  0.35256350    -0.53700
C68         C  0.23566183  0.18225502  0.33901498     0.10400
H69         H  0.16885428  0.19038837  0.36962019     0.14900
H70         H  0.22574564  0.21428271  0.31349721     0.00600
H71         H  0.17682442  0.14442409  0.31220394     0.15200
H72         H  0.23657088  0.14983678  0.36444637     0.15000
C73         C  0.20048746  0.39644612  0.15366095     0.86800
C74         C  0.19287095  0.36860261  0.14451923    -0.53500
C75         C  0.20371919  0.34931276  0.15893393     0.09700
C76         C  0.22088634  0.35928607  0.18092124     0.20600
C77         C  0.19244461  0.39665067  0.18203332    -0.54200
C78         C  0.20259885  0.37674770  0.19623234     0.09800
C79         C  0.23023585  0.39637715  0.15399315    -0.53700
C80         C  0.24088780  0.37704631  0.16804358     0.10400
H81         H  0.17970720  0.36390551  0.12894358     0.14900
H82         H  0.22999164  0.34375199  0.19250257     0.00600
H83         H  0.17829167  0.41006878  0.18956541     0.15200
H84         H  0.24196825  0.41012758  0.14328670     0.15000
C85         C  0.15075797  0.35562785  0.34033558     0.86800
C86         C  0.17925852  0.36413637  0.34661648    -0.53500
C87         C  0.19749807  0.35155613  0.33217439     0.09700
C88         C  0.18566478  0.33210269  0.31307162     0.20600
C89         C  0.14825369  0.36057191  0.31144498    -0.54200
C90         C  0.16680366  0.34865158  0.29728710     0.09800
C91         C  0.15109832  0.32608885  0.34361310    -0.53700
C92         C  0.16912690  0.31384579  0.32947863     0.10400
H93         H  0.18489094  0.37870742  0.36056252     0.14900
H94         H  0.20006386  0.32199115  0.30105589     0.00600
H95         H  0.13447942  0.37411538  0.30322582     0.15200
H96         H  0.13877106  0.31574456  0.35701835     0.15000
C97         C  0.89365761  0.69642787  0.15427456     0.86800
C98         C  0.89503412  0.68960662  0.18287421    -0.53500
C99         C  0.87510698  0.69938592  0.19707419     0.09700
C100        C  0.85608151  0.71596171  0.18116781     0.20600
C101        C  0.86607232  0.68684634  0.14606197    -0.54200
C102        C  0.84660938  0.69723301  0.16027485     0.09800
C103        C  0.89194553  0.72604956  0.15313877    -0.53700
C104        C  0.87259770  0.73649953  0.16723539     0.10400
H105        H  0.90908952  0.67596421  0.19035133     0.14900
H106        H  0.84013886  0.72449439  0.19245439     0.00600
H107        H  0.86174269  0.67246199  0.13153187     0.15200
H108        H  0.90438079  0.73765934  0.14090739     0.15000
C109        C  0.85614565  0.65375071  0.34344617     0.86800
C110        C  0.85950985  0.64893174  0.31447408    -0.53500
C111        C  0.84823293  0.66733795  0.29939192     0.09700
C112        C  0.83465791  0.68873897  0.31440863     0.20600
C113        C  0.86753923  0.68148057  0.34725965    -0.54200
C114        C  0.85626331  0.69978385  0.33173265     0.09800
C115        C  0.82684925  0.65669299  0.34719971    -0.53700
C116        C  0.81562446  0.67515799  0.33246171     0.10400
H117        H  0.87204663  0.63436552  0.30638113     0.14900
H118        H  0.82515648  0.70329032  0.30199643     0.00600
H119        H  0.88347278  0.68601026  0.36030743     0.15200
H120        H  0.81606068  0.64568856  0.36135061     0.15000
C121        C  0.69651403  0.65017611  0.15891497     0.86800
C122        C  0.69179096  0.65003495  0.18793415    -0.53500
C123        C  0.70356372  0.67015182  0.20074741     0.09700
C124        C  0.71983659  0.68801865  0.18355716     0.20600
C125        C  0.68772943  0.67774396  0.15055582    -0.54200
C126        C  0.69996416  0.69745170  0.16382999     0.09800
C127        C  0.72617812  0.65097245  0.15583205    -0.53700
C128        C  0.73833343  0.67055100  0.16861635     0.10400
H129        H  0.67886657  0.63626182  0.19717116     0.14900
H130        H  0.72985698  0.70394823  0.19417102     0.00600
H131        H  0.67302599  0.68177238  0.13623311     0.15200
H132        H  0.73665762  0.63766013  0.14363657     0.15000
C133        C  0.65995393  0.69908268  0.34587420     0.86800
C134        C  0.65900128  0.69396089  0.31681458    -0.53500
C135        C  0.67871158  0.70566156  0.30337670     0.09700
C136        C  0.69686490  0.72232867  0.32057921     0.20600
C137        C  0.68787755  0.69058682  0.35360428    -0.54200
C138        C  0.70717556  0.70266646  0.34002473     0.09800
C139        C  0.66038607  0.72850303  0.34888787    -0.53700
C140        C  0.67966949  0.74058048  0.33616272     0.10400
H141        H  0.64540976  0.68020260  0.30822736     0.14900
H142        H  0.71187501  0.73322466  0.30991883     0.00600
H143        H  0.69234997  0.67577227  0.36749237     0.15200
H144        H  0.64731410  0.73890428  0.36139619     0.15000
C145        C  0.65393403  0.84684363  0.15670071     0.86800
C146        C  0.65027254  0.85193963  0.18557082    -0.53500
C147        C  0.66926186  0.84149272  0.20066401     0.09700
C148        C  0.68971801  0.82629763  0.18573892     0.20600
C149        C  0.68177876  0.85718600  0.15164091    -0.54200
C150        C  0.70052769  0.84647221  0.16704128     0.09800
C151        C  0.65582248  0.81728762  0.15437794    -0.53700
C152        C  0.67466562  0.80649074  0.16914890     0.10400
H153        H  0.63560638  0.86433036  0.19359712     0.14900
H154        H  0.70476299  0.81720193  0.19801405     0.00600
H155        H  0.68606364  0.87222475  0.13776111     0.15200
H156        H  0.64381011  0.80592502  0.14124537     0.15000
C157        C  0.70534242  0.89469537  0.34349750     0.86800
C158        C  0.69562962  0.89298026  0.31540967    -0.53500
C159        C  0.70451945  0.87161976  0.30228783     0.09700
C160        C  0.72313001  0.85491228  0.31858294     0.20600
C161        C  0.69707913  0.86829384  0.35467101    -0.54200
C162        C  0.70660443  0.84765980  0.34169099     0.09800
C163        C  0.73499635  0.89401841  0.34168969    -0.53700
C164        C  0.74431412  0.87310535  0.32923036     0.10400
H165        H  0.68118835  0.90580177  0.30739668     0.14900
H166        H  0.73175422  0.83806942  0.30880107     0.00600
H167        H  0.68379283  0.86613958  0.37055935     0.15200
H168        H  0.74770179  0.90849194  0.35050139     0.15000
C169        C  0.85081433  0.89247514  0.15219148     0.86800
C170        C  0.85870590  0.89430133  0.18062082    -0.53500
C171        C  0.84846945  0.87506202  0.19551243     0.09700
C172        C  0.83034746  0.85634913  0.18075346     0.20600
C173        C  0.85870385  0.86436256  0.14463681    -0.54200
C174        C  0.84765598  0.84556659  0.15976222     0.09800
C175        C  0.82101875  0.89165079  0.15170575    -0.53700
C176        C  0.81028233  0.87280745  0.16640365     0.10400
H177        H  0.87340123  0.90787007  0.18760843     0.14900
H178        H  0.82155276  0.84125626  0.19315879     0.00600
H179        H  0.87208438  0.85934725  0.12962578     0.15200
H180        H  0.80934746  0.90467992  0.14013011     0.15000
C181        C  0.90034069  0.85098714  0.33916421     0.86800
C182        C  0.90409598  0.85603206  0.31044995    -0.53500
C183        C  0.88582374  0.84431927  0.29514444     0.09700
C184        C  0.86554331  0.82836262  0.30992568     0.20600
C185        C  0.87206019  0.85998989  0.34395646    -0.54200
C186        C  0.85386745  0.84824062  0.32829102     0.09800
C187        C  0.89891235  0.82149462  0.34214325    -0.53700
C188        C  0.88066852  0.80960272  0.32726925     0.10400
H189        H  0.91851159  0.86953582  0.30310434     0.14900
H190        H  0.85095967  0.81833349  0.29760019     0.00600
H191        H  0.86657405  0.87489633  0.35737100     0.15200
H192        H  0.91137267  0.81088916  0.35526307     0.15000
O193        O  0.86997393  0.57447130  0.43941938    -0.57500
C194        C  0.90240488  0.48222821  0.44942737     0.75100
O195        O  0.92022863  0.54430133  0.46655218    -0.58700
C196        C  0.87098499  0.56949461  0.41583148     0.75100
C197        C  0.82513276  0.52207388  0.47883312     0.77500
Cd198      Cd  0.87558247  0.53091994  0.45567341     1.37500
O199        O  0.89607596  0.49580131  0.43018654    -0.57500
O200        O  0.84548068  0.52695153  0.49177825    -0.56300
C201        C  0.91377942  0.56180512  0.48214237     0.77400
O202        O  0.82821372  0.51984114  0.45490479    -0.58700
O203        O  0.89460184  0.49032149  0.47086955    -0.57200
O204        O  0.87267696  0.54568283  0.40992337    -0.57200
O205        O  0.88985194  0.56329322  0.48716876    -0.56300
O206        O  0.05312571  0.65048894  0.07345005    -0.57500
C207        C  0.98177791  0.67523068  0.08822869     0.75100
O208        O  0.02143202  0.70326003  0.01083006    -0.58700
C209        C  0.06960601  0.64881785  0.05568453     0.75100
C210        C  0.98947691  0.63662260  0.01834682     0.77500
Cd211      Cd  0.01960491  0.67310301  0.04744795     1.37500
O212        O  0.00365023  0.68653855  0.09109574    -0.57500
O213        O  0.01052328  0.62997156  0.02909098    -0.56300
C214        C  0.02483188  0.72372485  0.02383454     0.77400
O215        O  0.98420321  0.66054928  0.01870196    -0.58700
O216        O  0.97872216  0.66271889  0.06772919    -0.57200
O217        O  0.06356728  0.65983625  0.03490767    -0.57200
O218        O  0.02643588  0.72071652  0.04783143    -0.56300
O219        O  0.86913486  0.00285862  0.08914982    -0.57500
C220        C  0.90396870  0.06717222  0.04851742     0.75100
O221        O  0.89121336  0.98702877  0.01217686    -0.58700
C222        C  0.87219786  0.97906106  0.08370693     0.75100
C223        C  0.82672810  0.02649072  0.01944034     0.77500
Cd224      Cd  0.87682667  0.01805071  0.04392363     1.37500
O225        O  0.89592839  0.05547883  0.06830389    -0.57500
O226        O  0.82994189  0.02907502  0.04336764    -0.56300
C227        C  0.91492644  0.98790257  0.01892172     0.77400
O228        O  0.84673806  0.02058332  0.00696906    -0.58700
O229        O  0.89800207  0.05681015  0.02732152    -0.57200
O230        O  0.87637484  0.97403256  0.06053482    -0.57200
O231        O  0.92129963  0.00465824  0.03561376    -0.56300
O232        O  0.04995636  0.90183231  0.42952905    -0.57500
C233        C  0.98246745  0.87472751  0.41266066     0.75100
O234        O  0.02177900  0.84664463  0.49136608    -0.58700
C235        C  0.06756276  0.90245576  0.44658334     0.75100
C236        C  0.98883957  0.91263120  0.48469097     0.77500
Cd237      Cd  0.01836069  0.87703815  0.45525213     1.37500
O238        O  0.00412234  0.86321981  0.41160832    -0.57500
O239        O  0.01077724  0.91913325  0.47592680    -0.56300
C240        C  0.02373506  0.82622770  0.47812499     0.77400
O241        O  0.98225884  0.88903035  0.48228225    -0.58700
O242        O  0.97839430  0.88757237  0.43271646    -0.57200
O243        O  0.06306616  0.88952798  0.46662027    -0.57200
O244        O  0.02362256  0.82933875  0.45411440    -0.56300
O245        O  0.55017239  0.68120189  0.40880889    -0.57500
C246        C  0.48619824  0.64780718  0.44949029     0.75100
O247        O  0.56610740  0.65863414  0.48784749    -0.58700
C248        C  0.57414112  0.67899162  0.41435837     0.75100
C249        C  0.52963700  0.72453885  0.47795555     0.77500
Cd250      Cd  0.53625199  0.67392263  0.45435175     1.37500
O251        O  0.49865189  0.65456693  0.42974398    -0.57500
O252        O  0.52824431  0.72136192  0.45393956    -0.56300
C253        C  0.56766772  0.63575368  0.47916698     0.77400
O254        O  0.53343656  0.70424741  0.49095225    -0.58700
O255        O  0.49633262  0.65435231  0.47067146    -0.57200
O256        O  0.57959510  0.67598609  0.43770781    -0.57200
O257        O  0.55305552  0.63014474  0.46031556    -0.56300
O258        O  0.65351091  0.49177097  0.07425951    -0.57500
C259        C  0.67144123  0.56252880  0.09352263     0.75100
O260        O  0.70338282  0.52530169  0.01342173    -0.58700
C261        C  0.64835796  0.47781215  0.05488275     0.75100
C262        C  0.64034869  0.56133089  0.01911637     0.77500
Cd263      Cd  0.67262632  0.52838198  0.04942784     1.37500
O264        O  0.68956119  0.54629507  0.09068056    -0.57500
O265        O  0.63262338  0.53911720  0.02613740    -0.56300
C266        C  0.72382470  0.52363723  0.02691035     0.77400
O267        O  0.66372789  0.56731809  0.02430253    -0.58700
O268        O  0.65303889  0.56118507  0.07743696    -0.57200
O269        O  0.65622076  0.48643662  0.03371932    -0.57200
O270        O  0.72062151  0.52388741  0.05088312    -0.56300
O271        O  0.54763104  0.87614099  0.09017614    -0.57500
C272        C  0.48134231  0.90353821  0.05132390     0.75100
O273        O  0.55291594  0.89921755  0.00779566    -0.58700
C274        C  0.57092132  0.87142367  0.08400044     0.75100
C275        C  0.52627205  0.82756164  0.02312379     0.77500
Cd276      Cd  0.53177707  0.87915800  0.04509097     1.37500
O277        O  0.49471929  0.89661591  0.07056282    -0.57500
O278        O  0.52348196  0.83141527  0.04687586    -0.56300
C279        C  0.56151502  0.91880957  0.01993911     0.77400
O280        O  0.53046734  0.84755338  0.00975885    -0.58700
O281        O  0.49060180  0.89778391  0.02977770    -0.57200
O282        O  0.57530586  0.86968927  0.06031854    -0.57200
O283        O  0.55520083  0.92049586  0.04317393    -0.56300
O284        O  0.65325486  0.05539290  0.42215126    -0.57500
C285        C  0.68328184  0.98185126  0.41089373     0.75100
O286        O  0.70459468  0.02208537  0.48467439    -0.58700
C287        C  0.64807120  0.06961205  0.44115766     0.75100
C288        C  0.63407369  0.99090814  0.47452719     0.77500
Cd289      Cd  0.67352269  0.02060726  0.44881081     1.37500
O290        O  0.67479332  0.00381301  0.40404170    -0.57500
O291        O  0.63302705  0.99581621  0.45089608    -0.56300
C292        C  0.72441317  0.02850189  0.47196525     0.77400
O293        O  0.65304825  0.00077866  0.48678067    -0.58700
O294        O  0.68806659  0.97904048  0.43448733    -0.57200
O295        O  0.65651663  0.06197257  0.46259401    -0.57200
O296        O  0.72067603  0.03227176  0.44824680    -0.56300
O297        O  0.50200975  0.37324423  0.09101412    -0.57500
C298        C  0.56763747  0.40055000  0.05330817     0.75100
O299        O  0.51838051  0.34442751  0.01044255    -0.58700
C300        C  0.47832213  0.36964719  0.08487772     0.75100
C301        C  0.48889158  0.41628979  0.02183290     0.77500
Cd302      Cd  0.51740834  0.37578192  0.04617096     1.37500
O303        O  0.55485028  0.39233592  0.07226911    -0.57500
O304        O  0.49592404  0.41731320  0.04501298    -0.56300
C305        C  0.52362143  0.32462970  0.02370089     0.77400
O306        O  0.49642334  0.39688142  0.00907928    -0.58700
O307        O  0.55795112  0.39573171  0.03149994    -0.57200
O308        O  0.47341679  0.36752115  0.06120357    -0.57200
O309        O  0.52639479  0.32848992  0.04751534    -0.56300
O310        O  0.39697823  0.55789579  0.42906238    -0.57500
C311        C  0.36813234  0.48202626  0.41502691     0.75100
O312        O  0.39909563  0.49838183  0.49008783    -0.58700
C313        C  0.40504147  0.57012596  0.44867970     0.75100
C314        C  0.32791568  0.52874337  0.47724714     0.77500
Cd315      Cd  0.37820932  0.52076600  0.45370397     1.37500
O316        O  0.37636229  0.50430804  0.40847153    -0.57500
O317        O  0.33171678  0.53441886  0.45396617    -0.56300
C318        C  0.41794901  0.48983944  0.47725890     0.77400
O319        O  0.34742216  0.52025270  0.48939772    -0.58700
O320        O  0.36307056  0.47914478  0.43846549    -0.57200
O321        O  0.39904567  0.56034742  0.47000390    -0.57200
O322        O  0.41883795  0.49672332  0.45412774    -0.56300
O323        O  0.55273339  0.15105223  0.42829782    -0.57500
C324        C  0.47843604  0.17750065  0.41991034     0.75100
O325        O  0.49973307  0.14816613  0.49407632    -0.58700
C326        C  0.56862160  0.14641399  0.44630971     0.75100
C327        C  0.52550369  0.22115520  0.47965864     0.77500
Cd328      Cd  0.51925743  0.17008772  0.45674719     1.37500
O329        O  0.50206229  0.17966931  0.41339861    -0.57500
O330        O  0.52755129  0.21747689  0.45581323    -0.56300
C331        C  0.49269338  0.12816572  0.48156453     0.77400
O332        O  0.52131234  0.20110483  0.49298474    -0.58700
O333        O  0.47429110  0.17307783  0.44327280    -0.57200
O334        O  0.56225880  0.15442260  0.46820141    -0.57200
O335        O  0.49958752  0.12713779  0.45846880    -0.56300
O336        O  0.39514731  0.99316797  0.07506639    -0.57500
C337        C  0.36998124  0.06980778  0.08845772     0.75100
O338        O  0.39865852  0.05099022  0.01359929    -0.58700
C339        C  0.40053676  0.97982303  0.05546984     0.75100
C340        C  0.32506648  0.02473641  0.02727298     0.77500
Cd341      Cd  0.37662705  0.03020517  0.05015602     1.37500
O342        O  0.37411003  0.04652630  0.09512828    -0.57500
O343        O  0.32897753  0.02037273  0.05085868    -0.56300
C344        C  0.41890186  0.05730602  0.02622596     0.77400
O345        O  0.34492297  0.03102179  0.01452697    -0.58700
O346        O  0.36790535  0.07388707  0.06468250    -0.57200
O347        O  0.39253027  0.98869473  0.03432722    -0.57200
O348        O  0.41977687  0.05003432  0.04925658    -0.56300
O349        O  0.99581698  0.15384054  0.07071902    -0.57500
C350        C  0.07077550  0.18064208  0.08629260     0.75100
O351        O  0.05340765  0.15232069  0.00964729    -0.58700
C352        C  0.98302926  0.14712079  0.05093174     0.75100
C353        C  0.02642724  0.22442022  0.02210081     0.77500
Cd354      Cd  0.03241540  0.17378125  0.04618684     1.37500
O355        O  0.04678477  0.18279884  0.09124580    -0.57500
O356        O  0.01960937  0.22039806  0.04499398    -0.56300
C357        C  0.05959738  0.13223164  0.02218203     0.77400
O358        O  0.03574327  0.20512948  0.01050962    -0.58700
O359        O  0.07639918  0.17697030  0.06311990    -0.57200
O360        O  0.99216659  0.15462494  0.02983265    -0.57200
O361        O  0.05236598  0.13126453  0.04519429    -0.56300
O362        O  0.15370577  0.99483748  0.42942073    -0.57500
C363        C  0.17984662  0.07162428  0.41792173     0.75100
O364        O  0.15077856  0.05190133  0.49253549    -0.58700
C365        C  0.14704810  0.98113482  0.44840372     0.75100
C366        C  0.22211541  0.02445189  0.48044737     0.77500
Cd367      Cd  0.17187218  0.03123911  0.45578305     1.37500
O368        O  0.17606518  0.04828972  0.41091714    -0.57500
O369        O  0.21880334  0.02067656  0.45665614    -0.56300
C370        C  0.13067510  0.05850697  0.48009768     0.77400
O371        O  0.20207181  0.03057050  0.49279136    -0.58700
O372        O  0.18152037  0.07534896  0.44179839    -0.57200
O373        O  0.15358666  0.98979321  0.47015839    -0.57200
O374        O  0.12931133  0.05129051  0.45702035    -0.56300
O375        O  0.15163840  0.55453195  0.07300506    -0.57500
C376        C  0.17864797  0.48379514  0.08601091     0.75100
O377        O  0.16182694  0.48830142  0.01582726    -0.58700
C378        C  0.14926413  0.57161980  0.05577709     0.75100
C379        C  0.22542913  0.52998465  0.02302381     0.77500
Cd380      Cd  0.17462307  0.52252544  0.04593456     1.37500
O381        O  0.18571650  0.50701920  0.09066443    -0.57500
O382        O  0.22248343  0.52799230  0.04695887    -0.56300
C383        C  0.13760982  0.49192790  0.01724325     0.77400
O384        O  0.20478043  0.52940590  0.00970047    -0.58700
O385        O  0.17003421  0.47953124  0.06376480    -0.57200
O386        O  0.16023163  0.56673141  0.03478242    -0.57200
O387        O  0.13053781  0.51178680  0.02950739    -0.56300
O388        O  0.99482192  0.39843449  0.42907107    -0.57500
C389        C  0.06782616  0.37825130  0.41073918     0.75100
O390        O  0.06626809  0.39229030  0.48329264    -0.58700
C391        C  0.98199681  0.40409749  0.44886736     0.75100
C392        C  0.02607515  0.32692651  0.47560801     0.77500
Cd393      Cd  0.03191113  0.37865776  0.45317100     1.37500
O394        O  0.04428943  0.37129471  0.40735469    -0.57500
O395        O  0.02689645  0.33022505  0.45162901    -0.56300
C396        C  0.06258766  0.41639532  0.48043894     0.77400
O397        O  0.02754004  0.34738160  0.48891826    -0.58700
O398        O  0.07406552  0.38499747  0.43316204    -0.57200
O399        O  0.99138257  0.39623645  0.46985571    -0.57200
O400        O  0.04331585  0.42277273  0.46672694    -0.56300
C401        C  0.08092364  0.43595249  0.49101460    -0.05200
C402        C  0.10603644  0.42818945  0.99804785    -0.32600
C403        C  0.12487525  0.44639207  0.00556446     0.36600
C404        C  0.11862671  0.47292736  0.00683790    -0.05500
C405        C  0.09337599  0.48071684  0.50029100    -0.32500
C406        C  0.07466262  0.46252011  0.49214609     0.36500
H407        H  0.11136581  0.40793331  0.99716125     0.16900
O408        O  0.14904294  0.43784125  0.01266939    -0.60000
H409        H  0.08816186  0.50099096  0.50137954     0.16900
O410        O  0.05043927  0.47099278  0.48515452    -0.60100
H411        H  0.03983548  0.46952565  0.50082670     0.43900
H412        H  0.15881037  0.43632706  0.99648648     0.43900
C413        C  0.02424651  0.25035901  0.00976062    -0.05200
C414        C  0.02095292  0.27256130  0.02493710    -0.32600
C415        C  0.02081716  0.29743000  0.01406838     0.36600
C416        C  0.02409690  0.30065305  0.48744356    -0.05500
C417        C  0.02632125  0.27834946  0.47214041    -0.32500
C418        C  0.02630976  0.25346481  0.48301345     0.36500
H419        H  0.01907395  0.27074123  0.04547568     0.16900
O420        O  0.01804129  0.31845714  0.02985320    -0.60000
H421        H  0.02852598  0.28016274  0.45163712     0.16900
O422        O  0.02862405  0.23235370  0.46724614    -0.60100
H423        H  0.01052963  0.22680977  0.46325058     0.43900
H424        H  0.99905034  0.32138854  0.03063390     0.43900
C425        C  0.11041425  0.07495227  0.49127615    -0.05200
C426        C  0.09420241  0.08924850  0.47487092    -0.32600
C427        C  0.07692890  0.10744342  0.48461817     0.36600
C428        C  0.07549517  0.11142470  0.01119130    -0.05500
C429        C  0.09068024  0.09612667  0.02765115    -0.32500
C430        C  0.10812511  0.07810179  0.01790559     0.36500
H431        H  0.09557439  0.08705710  0.45431710     0.16900
O432        O  0.06199776  0.12159528  0.46797071    -0.60000
H433        H  0.08977946  0.09882127  0.04817901     0.16900
O434        O  0.12331792  0.06425061  0.03457850    -0.60100
H435        H  0.11303294  0.04842584  0.03852528     0.43900
H436        H  0.04634714  0.11070914  0.46459693     0.43900
C437        C  0.29871976  0.02308811  0.01527900    -0.05200
C438        C  0.27648215  0.02297660  0.03068928    -0.32600
C439        C  0.25143406  0.02309271  0.01976626     0.36600
C440        C  0.24817113  0.02271084  0.49289417    -0.05500
C441        C  0.27039149  0.02196736  0.47756918    -0.32500
C442        C  0.29538004  0.02249300  0.48844439     0.36500
H443        H  0.27847158  0.02343968  0.05133090     0.16900
O444        O  0.23034256  0.02335649  0.03559908    -0.60000
H445        H  0.26847937  0.02167498  0.45691922     0.16900
O446        O  0.31640625  0.02211996  0.47254580    -0.60100
H447        H  0.31874904  0.04031220  0.46681559     0.43900
H448        H  0.22778635  0.04187303  0.03997694     0.43900
C449        C  0.43996442  0.07313840  0.01498389    -0.05200
C450        C  0.44177237  0.07519274  0.48833118    -0.32600
C451        C  0.45973701  0.09214500  0.47721331     0.36600
C452        C  0.47612366  0.10771187  0.49282874    -0.05500
C453        C  0.47494186  0.10501857  0.01946600    -0.32500
C454        C  0.45732813  0.08765454  0.03057720     0.36500
H455        H  0.42880537  0.06404196  0.47601536     0.16900
O456        O  0.46030905  0.09406569  0.45105813    -0.60000
H457        H  0.48739026  0.11675528  0.03176784     0.16900
O458        O  0.45624132  0.08624492  0.05673549    -0.60100
H459        H  0.46921025  0.07299802  0.06162639     0.43900
H460        H  0.44771611  0.10784434  0.44667421     0.43900
C461        C  0.30198862  0.53116697  0.48947399    -0.05200
C462        C  0.28002701  0.53729571  0.47453467    -0.32600
C463        C  0.25510691  0.53774658  0.48522906     0.36600
C464        C  0.25165893  0.53197199  0.01138356    -0.05500
C465        C  0.27371465  0.52683674  0.02649137    -0.32500
C466        C  0.29857303  0.52625470  0.01581964     0.36500
H467        H  0.28205367  0.54126885  0.45431205     0.16900
O468        O  0.23426587  0.54339971  0.46975249    -0.60000
H469        H  0.27169062  0.52253247  0.04665158     0.16900
O470        O  0.31937054  0.52083832  0.03145012    -0.60100
H471        H  0.31961691  0.50165959  0.03279794     0.43900
H472        H  0.23197337  0.56240224  0.47137026     0.43900
C473        C  0.52709801  0.24756480  0.49109539    -0.05200
C474        C  0.52532220  0.26939095  0.47514842    -0.32600
C475        C  0.52480252  0.29452579  0.48536620     0.36600
C476        C  0.52589885  0.29835800  0.01211763    -0.05500
C477        C  0.52854444  0.27656693  0.02801761    -0.32500
C478        C  0.52928029  0.25143422  0.01776465     0.36500
H479        H  0.52377644  0.26700508  0.45459897     0.16900
O480        O  0.52264691  0.31511712  0.46894232    -0.60000
H481        H  0.52970429  0.27892474  0.04858806     0.16900
O482        O  0.53181818  0.23081541  0.03409511    -0.60100
H483        H  0.55081470  0.22865923  0.03649213     0.43900
H484        H  0.54072601  0.31948042  0.46402260     0.43900
C485        C  0.47204692  0.43633075  0.01062853    -0.05200
C486        C  0.47162216  0.44019164  0.48411008    -0.32600
C487        C  0.45471901  0.45813683  0.47301675     0.36600
C488        C  0.43749224  0.47226416  0.48850913    -0.05500
C489        C  0.43812720  0.46849309  0.01506266    -0.32500
C490        C  0.45529895  0.45087256  0.02616586     0.36500
H491        H  0.48430027  0.42912253  0.47188601     0.16900
O492        O  0.45440141  0.46074989  0.44691763    -0.60000
H493        H  0.42499282  0.47897007  0.02731743     0.16900
O494        O  0.45439222  0.44690178  0.05208089    -0.60100
H495        H  0.46568880  0.46063675  0.05965196     0.43900
H496        H  0.46840608  0.47347552  0.44314334     0.43900
C497        C  0.59244568  0.13093997  0.44258921    -0.05200
C498        C  0.59582392  0.11674100  0.41987757    -0.32600
C499        C  0.61514439  0.09775247  0.41820832     0.36600
C500        C  0.63161941  0.09299397  0.43939419    -0.05500
C501        C  0.62963224  0.10884410  0.46111199    -0.32500
C502        C  0.61036209  0.12756490  0.46285956     0.36500
H503        H  0.58245855  0.11915003  0.40394297     0.16900
O504        O  0.61673099  0.08307669  0.39638328    -0.60000
H505        H  0.64224402  0.10582733  0.47752949     0.16900
O506        O  0.60827757  0.14123660  0.48524945    -0.60100
H507        H  0.61770724  0.15778606  0.48222624     0.43900
H508        H  0.60310902  0.06946934  0.39807226     0.43900
C509        C  0.45710478  0.91891308  0.05364564    -0.05200
C510        C  0.45085247  0.93058732  0.07710533    -0.32600
C511        C  0.43117081  0.94924297  0.07858283     0.36600
C512        C  0.41706628  0.95629443  0.05640468    -0.05500
C513        C  0.42182001  0.94288533  0.03352674    -0.32500
C514        C  0.44155595  0.92448752  0.03198846     0.36500
H515        H  0.46226742  0.92644447  0.09410009     0.16900
O516        O  0.42687048  0.96133007  0.10151574    -0.60000
H517        H  0.41112540  0.94764975  0.01624089     0.16900
O518        O  0.44640170  0.91325945  0.00874691    -0.60100
H519        H  0.43483653  0.89778887  0.00793084     0.43900
H520        H  0.43982347  0.97567563  0.10240823     0.43900
C521        C  0.61455133  0.97378765  0.48662713    -0.05200
C522        C  0.59756764  0.95918364  0.47093207    -0.32600
C523        C  0.58013574  0.94127641  0.48142212     0.36600
C524        C  0.57883293  0.93828496  0.00812669    -0.05500
C525        C  0.59527897  0.95339586  0.02388778    -0.32500
C526        C  0.61329701  0.97072777  0.01336665     0.36500
H527        H  0.59821862  0.96109878  0.45031701     0.16900
O528        O  0.56422798  0.92710166  0.46538543    -0.60000
H529        H  0.59474961  0.95122353  0.04448548     0.16900
O530        O  0.62945240  0.98458789  0.02943381    -0.60100
H531        H  0.64414804  0.97286055  0.03325568     0.43900
H532        H  0.57508162  0.91262816  0.45921510     0.43900
C533        C  0.63212109  0.45393522  0.05641441    -0.05200
C534        C  0.61751138  0.44916028  0.07850674    -0.32600
C535        C  0.59737178  0.43065245  0.07838583     0.36600
C536        C  0.59181088  0.41622989  0.05601663    -0.05500
C537        C  0.60790683  0.41944663  0.03469813    -0.32500
C538        C  0.62797157  0.43793855  0.03479435     0.36500
H539        H  0.62041243  0.46106495  0.09540078     0.16900
O540        O  0.58215018  0.42820549  0.09964383    -0.60000
H541        H  0.60422335  0.40835719  0.01739876     0.16900
O542        O  0.64232050  0.44121240  0.01304995    -0.60100
H543        H  0.65723822  0.42933198  0.01504161     0.43900
H544        H  0.56839933  0.44140816  0.09756361     0.43900
C545        C  0.46195976  0.63183825  0.44825492    -0.05200
C546        C  0.45370377  0.62054359  0.42501255    -0.32600
C547        C  0.43368055  0.60180426  0.42439234     0.36600
C548        C  0.42192835  0.59364900  0.44733942    -0.05500
C549        C  0.42876562  0.60651201  0.47015747    -0.32500
C550        C  0.44827446  0.62555592  0.47071689     0.36500
H551        H  0.46354370  0.62535255  0.40740222     0.16900
O552        O  0.42698415  0.59048947  0.40148795    -0.60000
H553        H  0.41965825  0.60110905  0.48799289     0.16900
O554        O  0.45464467  0.63690273  0.49370118    -0.60100
H555        H  0.44285243  0.65191456  0.49520331     0.43900
H556        H  0.41353768  0.60191802  0.39399404     0.43900
C557        C  0.52738713  0.75061066  0.49001218    -0.05200
C558        C  0.52436710  0.77254453  0.47440538    -0.32600
C559        C  0.52341819  0.79751549  0.48491855     0.36600
C560        C  0.52542711  0.80114112  0.01163403    -0.05500
C561        C  0.52791326  0.77919522  0.02734220    -0.32500
C562        C  0.52896351  0.75417261  0.01680560     0.36500
H563        H  0.52307720  0.77043844  0.45381560     0.16900
O564        O  0.52092354  0.81826178  0.46873864    -0.60000
H565        H  0.52968890  0.78143769  0.04789214     0.16900
O566        O  0.53233603  0.73349073  0.03291639    -0.60100
H567        H  0.51453040  0.72773147  0.03743976     0.43900
H568        H  0.50195405  0.82115728  0.46719820     0.43900
C569        C  0.62252387  0.58007155  0.00726210    -0.05200
C570        C  0.62629729  0.60656308  0.01233182    -0.32600
C571        C  0.60821208  0.62481890  0.00400776     0.36600
C572        C  0.58623428  0.61676947  0.48965783    -0.05500
C573        C  0.58287506  0.59030362  0.48396521    -0.32500
C574        C  0.60058078  0.57195893  0.49300245     0.36500
H575        H  0.64294263  0.61311799  0.02351859     0.16900
O576        O  0.61265140  0.65052524  0.00941237    -0.60000
H577        H  0.56631052  0.58373255  0.47268431     0.16900
O578        O  0.59660189  0.54625657  0.48725990    -0.60100
H579        H  0.58391936  0.53992925  0.50003042     0.43900
H580        H  0.60612781  0.65304563  0.02702112     0.43900
C581        C  0.09125904  0.91886649  0.44432009    -0.05200
C582        C  0.10836174  0.92084256  0.46535245    -0.32600
C583        C  0.12785957  0.93989868  0.46621885     0.36600
C584        C  0.13079565  0.95737086  0.44569496    -0.05500
C585        C  0.11524693  0.95392660  0.42370623    -0.32500
C586        C  0.09541607  0.93509089  0.42299367     0.36500
H587        H  0.10577645  0.90850661  0.98190516     0.16900
O588        O  0.14296842  0.94212924  0.98787272    -0.60000
H589        H  0.11722948  0.96702463  0.40765040     0.16900
O590        O  0.07954567  0.93356175  0.40180696    -0.60100
H591        H  0.06640967  0.94728826  0.40418526     0.43900
H592        H  0.15805421  0.93074508  0.98485878     0.43900
C593        C  0.95958997  0.13010452  0.05169248    -0.05200
C594        C  0.94729069  0.12336917  0.02849645    -0.32600
C595        C  0.92825973  0.10389087  0.02737818     0.36600
C596        C  0.92074937  0.09076648  0.04984258    -0.05500
C597        C  0.93167094  0.09876365  0.07335683    -0.32500
C598        C  0.95093889  0.11822267  0.07441721     0.36500
H599        H  0.95324873  0.13239900  0.01077232     0.16900
O600        O  0.91761719  0.09747885  0.00402432    -0.60000
H601        H  0.92618850  0.08907221  0.09088667     0.16900
O602        O  0.96218590  0.12426624  0.09756808    -0.60100
H603        H  0.95168934  0.13866468  0.10444251     0.43900
H604        H  0.93053896  0.08611277  0.99576737     0.43900
C605        C  0.80084997  0.02939351  0.00691515    -0.05200
C606        C  0.77854944  0.03081689  0.02209109    -0.32600
C607        C  0.75368409  0.03135392  0.01099831     0.36600
C608        C  0.75058777  0.03056339  0.48414009    -0.05500
C609        C  0.77291611  0.03027491  0.46890604    -0.32500
C610        C  0.79782733  0.02951721  0.48002337     0.36500
H611        H  0.78028758  0.03086860  0.04275578     0.16900
O612        O  0.73253816  0.03211845  0.02672515    -0.60000
H613        H  0.77109320  0.02982348  0.44825106     0.16900
O614        O  0.81903590  0.02896073  0.46435519    -0.60100
H615        H  0.82098576  0.01049305  0.45947847     0.43900
H616        H  0.72891821  0.05081288  0.02911820     0.43900
C617        C  0.97065747  0.93181668  0.49497284    -0.05200
C618        C  0.94396120  0.92625133  0.49338449    -0.32600
C619        C  0.92566330  0.94477642  0.00001047     0.36600
C620        C  0.93390934  0.96922692  0.00916984    -0.05500
C621        C  0.96063412  0.97474194  0.01117657    -0.32500
C622        C  0.97898879  0.95639290  0.00375182     0.36500
H623        H  0.93711493  0.90762415  0.48629040     0.16900
O624        O  0.89977606  0.93832413  0.99844060    -0.60000
H625        H  0.96732965  0.99334729  0.01845030     0.16900
O626        O  0.00493838  0.96243646  0.00576157    -0.60100
H627        H  0.00888678  0.97288624  0.99034956     0.43900
H628        H  0.89489391  0.94087373  0.48022400     0.43900
C629        C  0.13296812  0.59508266  0.05902559    -0.05200
C630        C  0.13180329  0.61358132  0.03932606    -0.32600
C631        C  0.11246012  0.63256356  0.03892322     0.36600
C632        C  0.09365878  0.63324062  0.05839355    -0.05500
C633        C  0.09643911  0.61641372  0.07933221    -0.32500
C634        C  0.11599601  0.59766987  0.07989861     0.36500
H635        H  0.14512608  0.61259005  0.02344699     0.16900
O636        O  0.11177126  0.64991080  0.01906239    -0.60000
H637        H  0.08256107  0.61680280  0.09476762     0.16900
O638        O  0.11705599  0.58084099  0.10014087    -0.60100
H639        H  0.12834358  0.58958784  0.11305245     0.43900
H640        H  0.10352844  0.64038142  0.00457765     0.43900
C641        C  0.02560874  0.80012724  0.48997885    -0.05200
C642        C  0.02586437  0.77793679  0.47434947    -0.32600
C643        C  0.02632787  0.75301299  0.48499285     0.36600
C644        C  0.02624896  0.74980012  0.01181380    -0.05500
C645        C  0.02667153  0.77200437  0.02741116    -0.32500
C646        C  0.02649536  0.79690690  0.01678205     0.36500
H647        H  0.02540742  0.77983081  0.45371843     0.16900
O648        O  0.02637081  0.73198450  0.46890733    -0.60000
H649        H  0.02676023  0.77012978  0.04804379     0.16900
O650        O  0.02662126  0.81790532  0.03290475    -0.60100
H651        H  0.04524126  0.82225098  0.03572920     0.43900
H652        H  0.04494336  0.72891688  0.46516034     0.43900
C653        C  0.91929855  0.45902631  0.44761632    -0.05200
C654        C  0.92508459  0.44507573  0.46998500    -0.32600
C655        C  0.94425378  0.42601954  0.47028668     0.36600
C656        C  0.95832355  0.42046451  0.44790785    -0.05500
C657        C  0.95130033  0.43309975  0.42508244    -0.32500
C658        C  0.93198265  0.45217305  0.42478292     0.36500
H659        H  0.91548489  0.44968353  0.48774862     0.16900
O660        O  0.95000273  0.41404454  0.49302053    -0.60000
H661        H  0.96168358  0.42914409  0.40760466     0.16900
O662        O  0.92697669  0.46511217  0.40241171    -0.60100
H663        H  0.91372023  0.45437585  0.39334373     0.43900
H664        H  0.93846276  0.39855227  0.49351248     0.43900
C665        C  0.79922028  0.52025782  0.49120301    -0.05200
C666        C  0.79708507  0.52622500  0.51736618    -0.32600
C667        C  0.77283404  0.52709076  0.02927977     0.36600
C668        C  0.74992983  0.52174757  0.01513839    -0.05500
C669        C  0.75205978  0.51512865  0.98914600    -0.32500
C670        C  0.77634886  0.51431119  0.47719667     0.36500
H671        H  0.81427372  0.53092845  0.52862546     0.16900
O672        O  0.77180932  0.53376130  0.05465100    -0.60000
H673        H  0.73478260  0.51067090  0.97792076     0.16900
O674        O  0.77742847  0.50751224  0.45186753    -0.60100
H675        H  0.77381060  0.52369357  0.44230359     0.43900
H676        H  0.77026004  0.55291709  0.05483949     0.43900
C677        C  0.93304735  0.58038571  0.49268906    -0.05200
C678        C  0.95956591  0.57417804  0.99269236    -0.32600
C679        C  0.97835886  0.59236283  0.00060256     0.36600
C680        C  0.97076808  0.61742064  0.00800464    -0.05500
C681        C  0.94427613  0.62360371  0.50791295    -0.32500
C682        C  0.92547059  0.60524812  0.50078493     0.36500
H683        H  0.96576116  0.55515482  0.98656014     0.16900
O684        O  0.00400644  0.58540123  0.00107950    -0.60000
H685        H  0.93798020  0.64259232  0.51407110     0.16900
O686        O  0.89981295  0.61220083  0.50094038    -0.60100
H687        H  0.89394627  0.60890528  0.51866420     0.43900
H688        H  0.01069857  0.58999994  0.98394129     0.43900
C689        C  0.92241537  0.86182235  0.35591648    -0.05200
C690        C  0.91781183  0.87786799  0.37714763    -0.32600
C691        C  0.93742729  0.88310354  0.39519141     0.36600
C692        C  0.96245190  0.87254963  0.39218610    -0.05500
C693        C  0.96764397  0.85817511  0.37012230    -0.32500
C694        C  0.94807447  0.85296312  0.35205836     0.36500
H695        H  0.89885181  0.88556500  0.38092298     0.16900
O696        O  0.93152653  0.89789304  0.41615146    -0.60000
H697        H  0.98673079  0.85005147  0.36724471     0.16900
O698        O  0.95375650  0.83735719  0.33162231    -0.60100
H699        H  0.96238077  0.84892064  0.31910173     0.43900
H700        H  0.92363305  0.88565452  0.42853767     0.43900
C701        C  0.85982730  0.86804853  0.22081310    -0.05200
C702        C  0.86653582  0.84209034  0.22549120    -0.32600
C703        C  0.87692699  0.83449834  0.24904072     0.36600
C704        C  0.88054991  0.85282323  0.26861648    -0.05500
C705        C  0.87488536  0.87899664  0.26377697    -0.32500
C706        C  0.86451415  0.88665692  0.24008827     0.36500
H707        H  0.86369326  0.82745831  0.21090053     0.16900
O708        O  0.88295937  0.80896949  0.25288956    -0.60000
H709        H  0.87710766  0.89326929  0.27888741     0.16900
O710        O  0.85800692  0.91210944  0.23640041    -0.60100
H711        H  0.83930513  0.91308370  0.24063852     0.43900
H712        H  0.90206735  0.80804133  0.25084852     0.43900
C713        C  0.87044971  0.95785272  0.10284295    -0.05200
C714        C  0.85705437  0.96165329  0.12568217    -0.32600
C715        C  0.85232904  0.94093043  0.14237317     0.36600
C716        C  0.86067202  0.91551059  0.13631490    -0.05500
C717        C  0.87596856  0.91230282  0.11439226    -0.32500
C718        C  0.88080506  0.93310338  0.09778843     0.36500
H719        H  0.84922251  0.98053058  0.13016226     0.16900
O720        O  0.83787269  0.94539988  0.16381320    -0.60000
H721        H  0.88371190  0.89367844  0.10927951     0.16900
O722        O  0.89583101  0.92898664  0.07664855    -0.60100
H723        H  0.88407801  0.92062493  0.06388134     0.43900
H724        H  0.85041702  0.95214506  0.17676363     0.43900
C725        C  0.77231372  0.86694670  0.32903809    -0.05200
C726        C  0.78460200  0.86222642  0.30580997    -0.32600
C727        C  0.81113500  0.85644734  0.30516838     0.36600
C728        C  0.82574149  0.85486731  0.32818929    -0.05500
C729        C  0.81321677  0.85948653  0.35145508    -0.32500
C730        C  0.78680066  0.86564363  0.35199223     0.36500
H731        H  0.77369638  0.86354582  0.28802860     0.16900
O732        O  0.82281525  0.85396291  0.28185599    -0.60000
H733        H  0.82383713  0.85797921  0.36937013     0.16900
O734        O  0.77501574  0.86923796  0.37512989    -0.60100
H735        H  0.78077510  0.88668619  0.38098269     0.43900
H736        H  0.81542649  0.83788974  0.27414908     0.43900
C737        C  0.69728605  0.91725163  0.36048822    -0.05200
C738        C  0.68352129  0.93889897  0.35129891    -0.32600
C739        C  0.67858633  0.96017746  0.36733764     0.36600
C740        C  0.68756670  0.96014380  0.39291399    -0.05500
C741        C  0.70068529  0.93837308  0.40211897    -0.32500
C742        C  0.70575435  0.91736606  0.38631962     0.36500
H743        H  0.67695967  0.93993279  0.33167237     0.16900
O744        O  0.66521852  0.98091489  0.35770126    -0.60000
H745        H  0.70761633  0.93765341  0.42173641     0.16900
O746        O  0.71932203  0.89689204  0.39635942    -0.60100
H747        H  0.73747951  0.90322543  0.39838138     0.43900
H748        H  0.64663328  0.97674041  0.36061498     0.43900
C749        C  0.67393598  0.84904795  0.22767879    -0.05200
C750        C  0.68244723  0.83015417  0.24476699    -0.32600
C751        C  0.69191336  0.83680000  0.26912711     0.36600
C752        C  0.69368111  0.86326394  0.27669691    -0.05500
C753        C  0.68437917  0.88211680  0.25953498    -0.32500
C754        C  0.67437757  0.87523376  0.23541590     0.36500
H755        H  0.68233724  0.80995919  0.23896462     0.16900
O756        O  0.70002224  0.81715683  0.28485815    -0.60000
H757        H  0.68569664  0.90251252  0.26430524     0.16900
O758        O  0.66742368  0.89450500  0.21873002    -0.60100
H759        H  0.64993874  0.90002779  0.22423737     0.43900
H760        H  0.68590307  0.80393462  0.28486331     0.43900
C761        C  0.63318177  0.85704616  0.13817908    -0.05200
C762        C  0.60894138  0.86617352  0.14667571    -0.32600
C763        C  0.58866888  0.87145084  0.12939262     0.36600
C764        C  0.59220094  0.86775506  0.10298098    -0.05500
C765        C  0.61663383  0.85986562  0.09436158    -0.32500
C766        C  0.63678098  0.85430774  0.11153124     0.36500
H767        H  0.60473157  0.86825709  0.16670472     0.16900
O768        O  0.56545675  0.88009400  0.13865249    -0.60000
H769        H  0.62004697  0.85715432  0.07412510     0.16900
O770        O  0.65986382  0.84556779  0.10199930    -0.60100
H771        H  0.65692014  0.82691546  0.09821868     0.43900
H772        H  0.55564496  0.86420898  0.14341871     0.43900
C773        C  0.72843659  0.85443512  0.16697163    -0.05200
C774        C  0.74111997  0.85864596  0.14369087    -0.32600
C775        C  0.76767361  0.86484263  0.14319876     0.36600
C776        C  0.78203451  0.86698913  0.16627089    -0.05500
C777        C  0.76942042  0.86294415  0.18947635    -0.32500
C778        C  0.74283219  0.85716431  0.19002012     0.36500
H779        H  0.73057401  0.85647644  0.12577341     0.16900
O780        O  0.77950928  0.86804720  0.12001317    -0.60000
H781        H  0.78012754  0.86479206  0.20734843     0.16900
O782        O  0.73110178  0.85484859  0.21330600    -0.60100
H783        H  0.72786547  0.87289598  0.21892290     0.43900
H784        H  0.78756909  0.85109656  0.11622211     0.43900
C785        C  0.68541957  0.76825456  0.34045865    -0.05200
C786        C  0.66748708  0.78681775  0.33230438    -0.32600
C787        C  0.67316833  0.81321080  0.33506977     0.36600
C788        C  0.69731414  0.82104451  0.34538207    -0.05500
C789        C  0.71423877  0.80264906  0.35549501    -0.32500
C790        C  0.70804339  0.77615835  0.35379431     0.36500
H791        H  0.64951281  0.78081940  0.32298671     0.16900
O792        O  0.65624627  0.83111085  0.32527518    -0.60000
H793        H  0.73239664  0.80887924  0.36431710     0.16900
O794        O  0.72288469  0.75814114  0.36649403    -0.60100
H795        H  0.74115366  0.76446341  0.36644179     0.43900
H796        H  0.64511995  0.83605396  0.33982949     0.43900
C797        C  0.63699306  0.68806336  0.36093275    -0.05200
C798        C  0.64087613  0.67562255  0.38457947    -0.32600
C799        C  0.62039635  0.67162257  0.40146284     0.36600
C800        C  0.59511887  0.68000499  0.39512320    -0.05500
C801        C  0.59058572  0.69046711  0.37079994    -0.32500
C802        C  0.61120964  0.69476126  0.35390093     0.36500
H803        H  0.65991382  0.67027269  0.39129785     0.16900
O804        O  0.62573520  0.66055873  0.42475678    -0.60000
H805        H  0.57126571  0.69668645  0.36535624     0.16900
O806        O  0.60615925  0.70685780  0.33105359    -0.60100
H807        H  0.60459739  0.72553501  0.33525930     0.43900
H808        H  0.62361592  0.64162618  0.42200085     0.43900
C809        C  0.69684345  0.67796993  0.22717984    -0.05200
C810        C  0.71679582  0.68531221  0.24401549    -0.32600
C811        C  0.71138316  0.69496333  0.26840025     0.36600
C812        C  0.68531441  0.69760096  0.27657207    -0.05500
C813        C  0.66529292  0.69065529  0.25927426    -0.32500
C814        C  0.67085062  0.68088834  0.23486464     0.36500
H815        H  0.73687232  0.68342051  0.23826693     0.16900
O816        O  0.73197413  0.70034475  0.28434014    -0.60000
H817        H  0.64515976  0.69293126  0.26459207     0.16900
O818        O  0.65074677  0.67559696  0.21819521    -0.60100
H819        H  0.64373484  0.65850037  0.22357120     0.43900
H820        H  0.74021597  0.71627220  0.27737224     0.43900
C821        C  0.67269651  0.58316080  0.11334964    -0.05200
C822        C  0.68945152  0.58044467  0.13439982    -0.32600
C823        C  0.69502335  0.60147347  0.15056483     0.36600
C824        C  0.68489572  0.62636441  0.14515874    -0.05500
C825        C  0.66599656  0.62830331  0.12559514    -0.32500
C826        C  0.65977537  0.60696911  0.10991181     0.36500
H827        H  0.69907979  0.56216797  0.13783435     0.16900
O828        O  0.71222958  0.59797535  0.17043128    -0.60000
H829        H  0.65646216  0.64636887  0.12151158     0.16900
O830        O  0.64203338  0.61011132  0.09042961    -0.60100
H831        H  0.65216726  0.61692988  0.07582360     0.43900
H832        H  0.70150835  0.59177084  0.18487774     0.43900
C833        C  0.69286893  0.72527995  0.16262411    -0.05200
C834        C  0.71271141  0.74415487  0.16306083    -0.32600
C835        C  0.70704873  0.77051450  0.16509683     0.36600
C836        C  0.68111493  0.77853616  0.16736700    -0.05500
C837        C  0.66116482  0.75971669  0.16688355    -0.32500
C838        C  0.66686986  0.73326825  0.16460335     0.36500
H839        H  0.73282763  0.73851386  0.16213841     0.16900
O840        O  0.72708340  0.78822561  0.16458466    -0.60000
H841        H  0.64110278  0.76550243  0.16884841     0.16900
O842        O  0.64710367  0.71534850  0.16628867    -0.60100
H843        H  0.63882864  0.71498390  0.14908971     0.43900
H844        H  0.72804420  0.79404887  0.14654595     0.43900
C845        C  0.78799305  0.68238554  0.33528620    -0.05200
C846        C  0.76910065  0.66298818  0.33912290    -0.32600
C847        C  0.74288212  0.66925869  0.34196613     0.36600
C848        C  0.73508682  0.69538592  0.34081773    -0.05500
C849        C  0.75410842  0.71465833  0.33688955    -0.32500
C850        C  0.78029931  0.70847821  0.33470504     0.36500
H851        H  0.77455525  0.64275334  0.33923788     0.16900
O852        O  0.72490693  0.64954346  0.34354268    -0.60000
H853        H  0.74878196  0.73469205  0.33471128     0.16900
O854        O  0.79810841  0.72822270  0.33207949    -0.60100
H855        H  0.80373692  0.73266537  0.34975695     0.43900
H856        H  0.72671673  0.64263576  0.36115396     0.43900
C857        C  0.86607390  0.63284309  0.36177913    -0.05200
C858        C  0.87082031  0.60732643  0.35318787    -0.32600
C859        C  0.87290155  0.58656509  0.37037909     0.36600
C860        C  0.87033555  0.59086432  0.39680812    -0.05500
C861        C  0.86703825  0.61639367  0.40552133    -0.32500
C862        C  0.86490332  0.63711900  0.38845863     0.36500
H863        H  0.87127562  0.60264247  0.33309956     0.16900
O864        O  0.87689754  0.56209667  0.36098398    -0.60000
H865        H  0.86520663  0.62037333  0.42577140     0.16900
O866        O  0.85938209  0.66120187  0.39805458    -0.60100
H867        H  0.87614772  0.66805920  0.40484001     0.43900
H868        H  0.85937608  0.55540438  0.35622995     0.43900
C869        C  0.86424229  0.72755594  0.33057627    -0.05200
C870        C  0.86882538  0.74151243  0.35323617    -0.32600
C871        C  0.87400130  0.76823183  0.35256187     0.36600
C872        C  0.87516944  0.78136285  0.32887155    -0.05500
C873        C  0.87097271  0.76735300  0.30633288    -0.32500
C874        C  0.86557062  0.74077735  0.30694593     0.36500
H875        H  0.86746695  0.73186963  0.37157376     0.16900
O876        O  0.87704677  0.78139103  0.37522271    -0.60000
H877        H  0.87216851  0.77693327  0.28801951     0.16900
O878        O  0.86289036  0.72774970  0.28419118    -0.60100
H879        H  0.84700012  0.73472486  0.27591570     0.43900
H880        H  0.85988810  0.78923028  0.37857248     0.43900
C881        C  0.86646780  0.76469098  0.16614875    -0.05200
C882        C  0.84048575  0.77254988  0.16452392    -0.32600
C883        C  0.83416794  0.79868469  0.16103927     0.36600
C884        C  0.85400222  0.81758056  0.15912704    -0.05500
C885        C  0.87999149  0.80989397  0.16115443    -0.32500
C886        C  0.88629138  0.78380561  0.16503794     0.36500
H887        H  0.82490465  0.75843846  0.16563666     0.16900
O888        O  0.80853781  0.80554191  0.15870972    -0.60000
H889        H  0.89541548  0.82433603  0.16099249     0.16900
O890        O  0.91186391  0.77736254  0.16856920    -0.60100
H891        H  0.91463569  0.77745076  0.18736707     0.43900
H892        H  0.80080423  0.80242465  0.17574998     0.43900
C893        C  0.86874932  0.68983102  0.22327689    -0.05200
C894        C  0.84250720  0.68668318  0.23015547    -0.32600
C895        C  0.83560993  0.67774186  0.25436935     0.36600
C896        C  0.85496972  0.67134069  0.27226597    -0.05500
C897        C  0.88119344  0.67360220  0.26538027    -0.32500
C898        C  0.88817863  0.68310498  0.24129153     0.36500
H899        H  0.82700799  0.69116583  0.21686354     0.16900
O900        O  0.80983190  0.67617839  0.26068254    -0.60000
H901        H  0.89634605  0.66963045  0.27932237     0.16900
O902        O  0.91401141  0.68682281  0.23613806    -0.60100
H903        H  0.91760055  0.70531009  0.24020016     0.43900
H904        H  0.80439365  0.65821131  0.25628470     0.43900
C905        C  0.96025111  0.67720359  0.10689632    -0.05200
C906        C  0.96356583  0.69157753  0.12947684    -0.32600
C907        C  0.94244517  0.69648027  0.14551753     0.36600
C908        C  0.91720164  0.68706541  0.13914920    -0.05500
C909        C  0.91448241  0.67109241  0.11744360    -0.32500
C910        C  0.93551213  0.66626768  0.10143560     0.36500
H911        H  0.98240587  0.69983599  0.13434472     0.16900
O912        O  0.94651418  0.71118958  0.16712076    -0.60000
H913        H  0.89601874  0.66279900  0.11184014     0.16900
O914        O  0.93133082  0.65122519  0.08008584    -0.60100
H915        H  0.92413028  0.66314710  0.06699913     0.43900
H916        H  0.94890364  0.72924312  0.16099919     0.43900
C917        C  0.81926458  0.68841345  0.15897436    -0.05200
C918        C  0.81180848  0.66565415  0.17175729    -0.32600
C919        C  0.78544341  0.65945725  0.17487585     0.36600
C920        C  0.76629383  0.67621306  0.16524069    -0.05500
C921        C  0.77384063  0.69811164  0.15120759    -0.32500
C922        C  0.80013293  0.70423865  0.14799269     0.36500
H923        H  0.82644300  0.65327614  0.18022446     0.16900
O924        O  0.77857335  0.63728433  0.18769114    -0.60000
H925        H  0.75931693  0.71027942  0.14239677     0.16900
O926        O  0.80690797  0.72589186  0.13433345    -0.60100
H927        H  0.81272085  0.71933706  0.11751771     0.43900
H928        H  0.77665739  0.64266780  0.20578349     0.43900
C929        C  0.08756299  0.37742075  0.39022870    -0.05200
C930        C  0.08275890  0.36257354  0.36824067    -0.32600
C931        C  0.10267199  0.35748466  0.35095912     0.36600
C932        C  0.12828197  0.36688718  0.35563522    -0.05500
C933        C  0.13226679  0.38413044  0.37619122    -0.32500
C934        C  0.11223358  0.38934310  0.39340322     0.36500
H935        H  0.06387524  0.35360364  0.36510335     0.16900
O936        O  0.09743122  0.34124556  0.33070828    -0.60000
H937        H  0.15102492  0.39287844  0.37995374     0.16900
O938        O  0.11715267  0.40586192  0.41351281    -0.60100
H939        H  0.12689247  0.39545392  0.42626911     0.43900
H940        H  0.08977057  0.35247168  0.31729181     0.43900
C941        C  0.19273661  0.36957192  0.22209812    -0.05200
C942        C  0.18860714  0.38891275  0.24052023    -0.32600
C943        C  0.17929776  0.38251223  0.26486654     0.36600
C944        C  0.17330622  0.35650468  0.27091950    -0.05500
C945        C  0.17707235  0.33729291  0.25259711    -0.32500
C946        C  0.18673446  0.34350850  0.22847327     0.36500
H947        H  0.19327094  0.40896416  0.23626545     0.16900
O948        O  0.17709959  0.40167227  0.28290888    -0.60000
H949        H  0.17282626  0.31720660  0.25713188     0.16900
O950        O  0.18917496  0.32389708  0.21105713    -0.60100
H951        H  0.20378422  0.31316657  0.21737368     0.43900
H952        H  0.19390030  0.40174734  0.29235015     0.43900
C953        C  0.19059331  0.41965186  0.13806889    -0.05200
C954        C  0.17646143  0.41629425  0.11510508    -0.32600
C955        C  0.17161686  0.43709910  0.09870386     0.36600
C956        C  0.18080513  0.46227784  0.10484260    -0.05500
C957        C  0.19323902  0.46619826  0.12853121    -0.32500
C958        C  0.19814765  0.44526522  0.14502839     0.36500
H959        H  0.16969453  0.39753598  0.10878577     0.16900
O960        O  0.15881042  0.43215828  0.07605383    -0.60000
H961        H  0.20008724  0.48538297  0.13393245     0.16900
O962        O  0.21115921  0.44990775  0.16764034    -0.60100
H963        H  0.22945941  0.45340789  0.16285596     0.43900
H964        H  0.14009742  0.43387606  0.07999068     0.43900
C965        C  0.18622146  0.13778205  0.36680736    -0.05200
C966        C  0.18261008  0.11251733  0.35681740    -0.32600
C967        C  0.18034954  0.09079483  0.37296999     0.36600
C968        C  0.18175241  0.09384049  0.39976126    -0.05500
C969        C  0.18487471  0.11896638  0.40973115    -0.32500
C970        C  0.18728810  0.14057569  0.39376611     0.36500
H971        H  0.18295923  0.10910349  0.33643471     0.16900
O972        O  0.17732569  0.06666242  0.36224522    -0.60000
H973        H  0.18613444  0.12200209  0.43021504     0.16900
O974        O  0.19267063  0.16418049  0.40484536    -0.60100
H975        H  0.17602491  0.16992667  0.41228303     0.43900
H976        H  0.19522166  0.06055598  0.35906572     0.43900
C977        C  0.17484900  0.28622792  0.33354954    -0.05200
C978        C  0.18905651  0.27870330  0.35533780    -0.32600
C979        C  0.19489876  0.25255485  0.35950882     0.36600
C980        C  0.18581659  0.23367363  0.34216425    -0.05500
C981        C  0.17005187  0.24109959  0.32145462    -0.32500
C982        C  0.16518852  0.26728263  0.31663791     0.36500
H983        H  0.19614028  0.29322954  0.36874949     0.16900
O984        O  0.21031149  0.24576502  0.37991083    -0.60000
H985        H  0.16229085  0.22658338  0.30843346     0.16900
O986        O  0.15095677  0.27418870  0.29546133    -0.60100
H987        H  0.16361182  0.27472730  0.28127598     0.43900
H988        H  0.19805350  0.24142574  0.39380538     0.43900
C989        C  0.18495654  0.26847373  0.16503672    -0.05200
C990        C  0.16514558  0.28674904  0.16138774    -0.32600
C991        C  0.17098071  0.31291941  0.15709008     0.36600
C992        C  0.19705214  0.32138120  0.15673474    -0.05500
C993        C  0.21689120  0.30308076  0.15954461    -0.32500
C994        C  0.21106741  0.27681688  0.16363326     0.36500
H995        H  0.14493539  0.28085526  0.16255099     0.16900
O996        O  0.15107380  0.33037614  0.15582022    -0.60000
H997        H  0.23705462  0.30932606  0.15930937     0.16900
O998        O  0.23101238  0.25942178  0.16526902    -0.60100
H999        H  0.23956065  0.26282107  0.18204220     0.43900
H1000       H  0.14422337  0.32907047  0.13807307     0.43900
C1001       C  0.17760679  0.19962067  0.22881760    -0.05200
C1002       C  0.17680776  0.17350472  0.23654762    -0.32600
C1003       C  0.18499272  0.16607783  0.26120533     0.36600
C1004       C  0.19371032  0.18498394  0.27906383    -0.05500
C1005       C  0.19484603  0.21102484  0.27071824    -0.32500
C1006       C  0.18692492  0.21833707  0.24614664     0.36500
H1007       H  0.17075136  0.15860991  0.22306935     0.16900
O1008       O  0.18511631  0.14020132  0.26711034    -0.60000
H1009       H  0.20130526  0.22648025  0.28315414     0.16900
O1010       O  0.18740301  0.24411455  0.23955797    -0.60100
H1011       H  0.20601884  0.24929122  0.23950160     0.43900
H1012       H  0.20344963  0.13480046  0.26528459     0.43900
C1013       C  0.13260767  0.19023426  0.14202000    -0.05200
C1014       C  0.13613860  0.17492991  0.12003291    -0.32600
C1015       C  0.11599943  0.17121133  0.10218445     0.36600
C1016       C  0.09143281  0.18232520  0.10619713    -0.05500
C1017       C  0.08716090  0.19590935  0.12894874    -0.32500
C1018       C  0.10740928  0.20001497  0.14666052     0.36500
H1019       H  0.15473037  0.16681027  0.11545746     0.16900
O1020       O  0.12066157  0.15669608  0.08072151    -0.60000
H1021       H  0.06841017  0.20451944  0.13247135     0.16900
O1022       O  0.10292939  0.21554520  0.16745574    -0.60100
H1023       H  0.09427415  0.20413420  0.18008633     0.43900
H1024       H  0.12982267  0.16858036  0.06885787     0.43900
C1025       C  0.45668911  0.18013120  0.40141004    -0.05200
C1026       C  0.46132764  0.19071552  0.37724035    -0.32600
C1027       C  0.44083006  0.19531182  0.36016675     0.36600
C1028       C  0.41490063  0.18907472  0.36691780    -0.05500
C1029       C  0.41056118  0.17711394  0.39067192    -0.32500
C1030       C  0.43107186  0.17284551  0.40785523     0.36500
H1031       H  0.48082572  0.19644215  0.37185076     0.16900
O1032       O  0.44614467  0.20773963  0.33759528    -0.60000
H1033       H  0.39126605  0.17214742  0.39694851     0.16900
O1034       O  0.42570291  0.16170637  0.43104546    -0.60100
H1035       H  0.42013261  0.17620520  0.44214609     0.43900
H1036       H  0.45362615  0.19429461  0.32634184     0.43900
C1037       C  0.26380063  0.18775177  0.33972851    -0.05200
C1038       C  0.27648650  0.19203303  0.36328747    -0.32600
C1039       C  0.30330336  0.19679681  0.36433261     0.36600
C1040       C  0.31778296  0.19666652  0.34165950    -0.05500
C1041       C  0.30498339  0.19218816  0.31816478    -0.32500
C1042       C  0.27819437  0.18788501  0.31708606     0.36500
H1043       H  0.26545670  0.19212180  0.38083404     0.16900
O1044       O  0.31498500  0.20223200  0.38742978    -0.60000
H1045       H  0.31580649  0.19187253  0.30050530     0.16900
O1046       O  0.26632570  0.18346176  0.29385776    -0.60100
H1047       H  0.26607786  0.16434611  0.29175013     0.43900
H1048       H  0.31543200  0.22143148  0.38858543     0.43900
C1049       C  0.28252902  0.17954959  0.17255820    -0.05200
C1050       C  0.27070337  0.18288036  0.14846657    -0.32600
C1051       C  0.24439898  0.18915744  0.14639595     0.36600
C1052       C  0.22959197  0.19196312  0.16862798    -0.05500
C1053       C  0.24139743  0.18817176  0.19269604    -0.32500
C1054       C  0.26777064  0.18226647  0.19476400     0.36500
H1055       H  0.28210997  0.18129200  0.13123006     0.16900
O1056       O  0.23381864  0.19420243  0.12277102    -0.60000
H1057       H  0.23020190  0.19000295  0.21002051     0.16900
O1058       O  0.27877183  0.17841616  0.21844731    -0.60100
H1059       H  0.28156760  0.19601780  0.22569307     0.43900
H1060       H  0.23006420  0.17695253  0.11511679     0.43900
C1061       C  0.37117660  0.19438244  0.27990199    -0.05200
C1062       C  0.36879799  0.21356132  0.26130873    -0.32600
C1063       C  0.36249095  0.20712545  0.23603379     0.36600
C1064       C  0.35749058  0.18100673  0.22895609    -0.05500
C1065       C  0.36011169  0.16168669  0.24768080    -0.32500
C1066       C  0.36687701  0.16821327  0.27301693     0.36500
H1067       H  0.37200115  0.23374098  0.26638051     0.16900
O1068       O  0.36152660  0.22670557  0.21843667    -0.60000
H1069       H  0.35613742  0.14159361  0.24285835     0.16900
O1070       O  0.36747040  0.14913173  0.29124434    -0.60100
H1071       H  0.38462793  0.14079509  0.28936801     0.43900
H1072       H  0.37991588  0.23144654  0.21517363     0.43900
C1073       C  0.36739500  0.09148745  0.10694602    -0.05200
C1074       C  0.35605027  0.11451706  0.09841890    -0.32600
C1075       C  0.35211849  0.13524775  0.11503019     0.36600
C1076       C  0.35967472  0.13360627  0.14111766    -0.05500
C1077       C  0.37225005  0.11090086  0.14942104    -0.32500
C1078       C  0.37600400  0.08995110  0.13258685     0.36500
H1079       H  0.34933386  0.11630485  0.07880006     0.16900
O1080       O  0.33905594  0.15646746  0.10592108    -0.60000
H1081       H  0.37831935  0.10864016  0.16909792     0.16900
O1082       O  0.38829045  0.06819521  0.14138485    -0.60100
H1083       H  0.37440144  0.05739417  0.14911021     0.43900
H1084       H  0.35181008  0.16611372  0.09538564     0.43900
C1085       C  0.27985484  0.36892569  0.32970228    -0.05200
C1086       C  0.27061842  0.34327907  0.32832625    -0.32600
C1087       C  0.24416318  0.33737318  0.33023333     0.36600
C1088       C  0.22587400  0.35735037  0.33272468    -0.05500
C1089       C  0.23476824  0.38312077  0.33325487    -0.32500
C1090       C  0.26140085  0.38906633  0.33167707     0.36500
H1091       H  0.28384999  0.32738680  0.32636367     0.16900
O1092       O  0.23651777  0.31183208  0.33002741    -0.60000
H1093       H  0.22098045  0.39882672  0.33418336     0.16900
O1094       O  0.26892463  0.41463124  0.33045227    -0.60100
H1095       H  0.26432597  0.42227802  0.34722250     0.43900
H1096       H  0.23981163  0.30553795  0.34766233     0.43900
C1097       C  0.35761757  0.41589764  0.36469729    -0.05200
C1098       C  0.36860795  0.43912120  0.35520440    -0.32600
C1099       C  0.37235146  0.46089331  0.37115439     0.36600
C1100       C  0.36487601  0.45988146  0.39702230    -0.05500
C1101       C  0.35459609  0.43660531  0.40654590    -0.32500
C1102       C  0.35069806  0.41507738  0.39082066     0.36500
H1103       H  0.37339887  0.44111010  0.33524830     0.16900
O1104       O  0.38266875  0.48318581  0.36102337    -0.60000
H1105       H  0.34889727  0.43506378  0.42638113     0.16900
O1106       O  0.33935204  0.39336176  0.40118382    -0.60100
H1107       H  0.32047925  0.39701677  0.40159830     0.43900
H1108       H  0.40175474  0.48134366  0.36287082     0.43900
C1109       C  0.35362102  0.31943804  0.34646438    -0.05200
C1110       C  0.37923274  0.31307749  0.34023016    -0.32600
C1111       C  0.38624582  0.28720453  0.33661409     0.36600
C1112       C  0.36757079  0.26737265  0.33947594    -0.05500
C1113       C  0.34251413  0.27362943  0.34760163    -0.32500
C1114       C  0.33543646  0.29958620  0.35121556     0.36500
H1115       H  0.39333953  0.32829540  0.33645662     0.16900
O1116       O  0.41105775  0.28156347  0.32923593    -0.60000
H1117       H  0.32847220  0.25833849  0.35132128     0.16900
O1118       O  0.31132464  0.30556105  0.36052821    -0.60100
H1119       H  0.29860369  0.29397652  0.35170646     0.43900
H1120       H  0.41043439  0.28135397  0.31027329     0.43900
C1121       C  0.36654858  0.28285454  0.16834677    -0.05200
C1122       C  0.38601391  0.26452522  0.16359749    -0.32600
C1123       C  0.37997721  0.23820812  0.16068509     0.36600
C1124       C  0.35403741  0.22961106  0.16265767    -0.05500
C1125       C  0.33445412  0.24790130  0.16661930    -0.32500
C1126       C  0.34046858  0.27429953  0.16950913     0.36500
H1127       H  0.40622582  0.27046351  0.16282768     0.16900
O1128       O  0.39980409  0.22097069  0.15740199    -0.60000
H1129       H  0.31435776  0.24162956  0.16797267     0.16900
O1130       O  0.32059468  0.29157259  0.17236337    -0.60100
H1131       H  0.31359902  0.28832869  0.18969459     0.43900
H1132       H  0.40537580  0.21602553  0.17492387     0.43900
C1133       C  0.35934020  0.36484824  0.27940780    -0.05200
C1134       C  0.36743725  0.38434178  0.26233944    -0.32600
C1135       C  0.37659742  0.37817639  0.23789363     0.36600
C1136       C  0.37793075  0.35208710  0.22999542    -0.05500
C1137       C  0.37061321  0.33261467  0.24705401    -0.32500
C1138       C  0.36176150  0.33860465  0.27160673     0.36500
H1139       H  0.36570944  0.40458371  0.26750701     0.16900
O1140       O  0.38250864  0.39789644  0.22130846    -0.60000
H1141       H  0.37120419  0.31248416  0.24108764     0.16900
O1142       O  0.35511351  0.31851657  0.28746174    -0.60100
H1143       H  0.37048548  0.30708787  0.28833349     0.43900
H1144       H  0.36600451  0.40171023  0.21218069     0.43900
C1145       C  0.45720482  0.36787049  0.10398629    -0.05200
C1146       C  0.43205660  0.36097675  0.09574191    -0.32600
C1147       C  0.41199863  0.35712677  0.11320670     0.36600
C1148       C  0.41653527  0.36047996  0.13977486    -0.05500
C1149       C  0.44145395  0.36895530  0.14781250    -0.32500
C1150       C  0.46153514  0.37277926  0.13020837     0.36500
H1151       H  0.42798272  0.35761908  0.07563427     0.16900
O1152       O  0.38812381  0.34909120  0.10412628    -0.60000
H1153       H  0.44620045  0.37161430  0.16776897     0.16900
O1154       O  0.48553588  0.38055412  0.13905987    -0.60100
H1155       H  0.48493946  0.39976860  0.13937275     0.43900
H1156       H  0.39009436  0.33047563  0.09983495     0.43900
C1157       C  0.32233148  0.35969292  0.16942566    -0.05200
C1158       C  0.30956640  0.36415620  0.14605004    -0.32600
C1159       C  0.28312803  0.37012725  0.14533613     0.36600
C1160       C  0.26903448  0.37181187  0.16826723    -0.05500
C1161       C  0.28174756  0.36768918  0.19160136    -0.32500
C1162       C  0.30826110  0.36210800  0.19238254     0.36500
H1163       H  0.31990549  0.36220833  0.12821167     0.16900
O1164       O  0.27108173  0.37342932  0.12207114    -0.60000
H1165       H  0.27115169  0.36917196  0.20934931     0.16900
O1166       O  0.32019295  0.35938470  0.21574602    -0.60100
H1167       H  0.32214971  0.37725477  0.22257321     0.43900
H1168       H  0.26326904  0.35628727  0.11781810     0.43900
C1169       C  0.39603698  0.35093117  0.65871365     0.86800
C1170       C  0.36860351  0.36202459  0.65412881    -0.53500
C1171       C  0.34989801  0.35147658  0.66955379     0.09700
C1172       C  0.36030214  0.33068618  0.68780336     0.20600
C1173       C  0.40079953  0.35547292  0.68768208    -0.54200
C1174       C  0.38182098  0.34505664  0.70278847     0.09800
C1175       C  0.39269226  0.32154479  0.65591670    -0.53700
C1176       C  0.37383865  0.31080681  0.67062278     0.10400
H1177       H  0.36455177  0.37727572  0.64041015     0.14900
H1178       H  0.34537563  0.32192589  0.70029884     0.00600
H1179       H  0.41608888  0.36760676  0.69572844     0.15200
H1180       H  0.40377071  0.31032342  0.64229815     0.15000
C1181       C  0.34886445  0.39360028  0.84715195     0.86800
C1182       C  0.35589461  0.36652160  0.85743471    -0.53500
C1183       C  0.34531768  0.34656996  0.84359893     0.09700
C1184       C  0.32937654  0.35537283  0.82024570     0.20600
C1185       C  0.35858052  0.39279021  0.81924812    -0.54200
C1186       C  0.34888905  0.37224637  0.80515751     0.09800
C1187       C  0.31922341  0.39361590  0.84488655    -0.53700
C1188       C  0.30862674  0.37389136  0.83088188     0.10400
H1189       H  0.36920130  0.36340927  0.87336001     0.14900
H1190       H  0.32091220  0.33923707  0.80889855     0.00600
H1191       H  0.37363545  0.40552391  0.81199471     0.15200
H1192       H  0.30769392  0.40744454  0.85535115     0.15000
C1193       C  0.35065887  0.15472307  0.65955810     0.86800
C1194       C  0.35833663  0.18235299  0.65087785    -0.53500
C1195       C  0.34761530  0.20166677  0.66514070     0.09700
C1196       C  0.33055651  0.19167872  0.68692710     0.20600
C1197       C  0.35910393  0.15423829  0.68818228    -0.54200
C1198       C  0.34888679  0.17414604  0.70238097     0.09800
C1199       C  0.32094939  0.15446786  0.66012138    -0.53700
C1200       C  0.31046458  0.17380814  0.67401007     0.10400
H1201       H  0.37136311  0.18617372  0.63509896     0.14900
H1202       H  0.32153187  0.20720482  0.69845213     0.00600
H1203       H  0.37324995  0.14103419  0.69618129     0.15200
H1204       H  0.30903208  0.14079484  0.64921754     0.15000
C1205       C  0.39257116  0.19904313  0.85036465     0.86800
C1206       C  0.36413289  0.19150366  0.85726771    -0.53500
C1207       C  0.34592868  0.20269835  0.84154339     0.09700
C1208       C  0.35750864  0.22032876  0.82106539     0.20600
C1209       C  0.39448674  0.19130312  0.82202910    -0.54200
C1210       C  0.37604152  0.20231572  0.80674665     0.09800
C1211       C  0.39286630  0.22872930  0.85089906    -0.53700
C1212       C  0.37441076  0.23987206  0.83604259     0.10400
H1213       H  0.35858841  0.17757270  0.87172381     0.14900
H1214       H  0.34275247  0.22968451  0.80857030     0.00600
H1215       H  0.40837588  0.17737793  0.81492886     0.15200
H1216       H  0.40530428  0.23995614  0.86377976     0.15000
C1217       C  0.15564677  0.20002282  0.65822356     0.86800
C1218       C  0.18319441  0.18937078  0.65272732    -0.53500
C1219       C  0.20233528  0.20063658  0.66749875     0.09700
C1220       C  0.19256500  0.22140883  0.68578403     0.20600
C1221       C  0.15268801  0.19576812  0.68724711    -0.54200
C1222       C  0.17221443  0.20673694  0.70170560     0.09800
C1223       C  0.15854238  0.22933797  0.65462326    -0.53700
C1224       C  0.17785488  0.24068012  0.66864735     0.10400
H1225       H  0.18741611  0.17341165  0.64003285     0.14900
H1226       H  0.20830896  0.23042650  0.69742532     0.00600
H1227       H  0.13763733  0.18351021  0.69538570     0.15200
H1228       H  0.14691182  0.24004603  0.64084901     0.15000
C1229       C  0.19547847  0.16019039  0.84974010     0.86800
C1230       C  0.18478021  0.18726534  0.85655340    -0.53500
C1231       C  0.19578953  0.20697806  0.84285875     0.09700
C1232       C  0.21603544  0.19805044  0.82355542     0.20600
C1233       C  0.19026907  0.15843708  0.82041425    -0.54200
C1234       C  0.20081715  0.17864683  0.80646908     0.09800
C1235       C  0.22496841  0.16266871  0.85256325    -0.53700
C1236       C  0.23566191  0.18225469  0.83901474     0.10400
H1237       H  0.16885431  0.19038813  0.86961973     0.14900
H1238       H  0.22574584  0.21428232  0.81349686     0.00600
H1239       H  0.17682456  0.14442377  0.81220353     0.15200
H1240       H  0.23657086  0.14983649  0.86444617     0.15000
C1241       C  0.20048759  0.39644606  0.65366106     0.86800
C1242       C  0.19287110  0.36860254  0.64451940    -0.53500
C1243       C  0.20371931  0.34931272  0.65893414     0.09700
C1244       C  0.22088639  0.35928605  0.68092148     0.20600
C1245       C  0.19244462  0.39665064  0.68203344    -0.54200
C1246       C  0.20259883  0.37674769  0.69623252     0.09800
C1247       C  0.23023595  0.39637710  0.65399340    -0.53700
C1248       C  0.24088787  0.37704628  0.66804387     0.10400
H1249       H  0.17970727  0.36390542  0.62894382     0.14900
H1250       H  0.22999169  0.34375199  0.69250281     0.00600
H1251       H  0.17829162  0.41006872  0.68956547     0.15200
H1252       H  0.24196837  0.41012752  0.64328695     0.15000
C1253       C  0.15075806  0.35562762  0.84033595     0.86800
C1254       C  0.17925857  0.36413628  0.84661683    -0.53500
C1255       C  0.19749816  0.35155615  0.83217469     0.09700
C1256       C  0.18566493  0.33210271  0.81307189     0.20600
C1257       C  0.14825373  0.36057170  0.81144534    -0.54200
C1258       C  0.16680375  0.34865152  0.79728740     0.09800
C1259       C  0.15109860  0.32608864  0.84361345    -0.53700
C1260       C  0.16912719  0.31384570  0.82947889     0.10400
H1261       H  0.18489091  0.37870728  0.86056295     0.14900
H1262       H  0.20006403  0.32199124  0.80105612     0.00600
H1263       H  0.13447935  0.37411508  0.80322620     0.15200
H1264       H  0.13877144  0.31574428  0.85701875     0.15000
C1265       C  0.89365747  0.69642756  0.65427448     0.86800
C1266       C  0.89503394  0.68960650  0.68287418    -0.53500
C1267       C  0.87510670  0.69938575  0.69707405     0.09700
C1268       C  0.85608123  0.71596140  0.68116751     0.20600
C1269       C  0.86607223  0.68684585  0.64606188    -0.54200
C1270       C  0.84660923  0.69723256  0.66027463     0.09800
C1271       C  0.89194527  0.72604924  0.65313851    -0.53700
C1272       C  0.87259735  0.73649923  0.66723501     0.10400
H1273       H  0.90908939  0.67596419  0.69035139     0.14900
H1274       H  0.84013849  0.72449403  0.69245400     0.00600
H1275       H  0.86174271  0.67246140  0.63153186     0.15200
H1276       H  0.90438053  0.73765896  0.64090709     0.15000
C1277       C  0.85614523  0.65375038  0.84344583     0.86800
C1278       C  0.85950934  0.64893142  0.81447375    -0.53500
C1279       C  0.84823232  0.66733760  0.79939163     0.09700
C1280       C  0.83465731  0.68873859  0.81440839     0.20600
C1281       C  0.86753877  0.68148027  0.84725927    -0.54200
C1282       C  0.85626275  0.69978352  0.83173232     0.09800
C1283       C  0.82684884  0.65669259  0.84719946    -0.53700
C1284       C  0.81562395  0.67515758  0.83246153     0.10400
H1285       H  0.87204618  0.63436526  0.80638078     0.14900
H1286       H  0.82515580  0.70328992  0.80199623     0.00600
H1287       H  0.88347240  0.68600998  0.86030695     0.15200
H1288       H  0.81606032  0.64568810  0.86135036     0.15000
C1289       C  0.69651395  0.65017570  0.65891523     0.86800
C1290       C  0.69179111  0.65003453  0.68793444    -0.53500
C1291       C  0.70356384  0.67015150  0.70074760     0.09700
C1292       C  0.71983649  0.68801842  0.68355722     0.20600
C1293       C  0.68772917  0.67774348  0.65055607    -0.54200
C1294       C  0.69996386  0.69745132  0.66383016     0.09800
C1295       C  0.72617800  0.65097219  0.65583211    -0.53700
C1296       C  0.73833330  0.67055082  0.66861629     0.10400
H1297       H  0.67886687  0.63626135  0.69717157     0.14900
H1298       H  0.72985687  0.70394804  0.69417100     0.00600
H1299       H  0.67302573  0.68177179  0.63623333     0.15200
H1300       H  0.73665750  0.63765984  0.64363667     0.15000
C1301       C  0.65995347  0.69908223  0.84587425     0.86800
C1302       C  0.65900098  0.69396050  0.81681463    -0.53500
C1303       C  0.67871134  0.70566116  0.80337684     0.09700
C1304       C  0.69686454  0.72232820  0.82057948     0.20600
C1305       C  0.68787702  0.69058631  0.85360446    -0.54200
C1306       C  0.70717510  0.70266598  0.84002505     0.09800
C1307       C  0.66038565  0.72850257  0.84888793    -0.53700
C1308       C  0.67966910  0.74058001  0.83616286     0.10400
H1309       H  0.64540949  0.68020223  0.80822733     0.14900
H1310       H  0.71187471  0.73322425  0.80991923     0.00600
H1311       H  0.69234935  0.67577172  0.86749253     0.15200
H1312       H  0.64731366  0.73890384  0.86139624     0.15000
C1313       C  0.65393359  0.84684327  0.65670042     0.86800
C1314       C  0.65027208  0.85193929  0.68557052    -0.53500
C1315       C  0.66926134  0.84149229  0.70066372     0.09700
C1316       C  0.68971749  0.82629718  0.68573867     0.20600
C1317       C  0.68177835  0.85718558  0.65164068    -0.54200
C1318       C  0.70052725  0.84647176  0.66704109     0.09800
C1319       C  0.65582200  0.81728725  0.65437758    -0.53700
C1320       C  0.67466511  0.80649035  0.66914857     0.10400
H1321       H  0.63560601  0.86433011  0.69359681     0.14900
H1322       H  0.70476240  0.81720140  0.69801382     0.00600
H1323       H  0.68606326  0.87222436  0.63776092     0.15200
H1324       H  0.64380961  0.80592469  0.64124499     0.15000
C1325       C  0.70534227  0.89469484  0.84349718     0.86800
C1326       C  0.69562942  0.89297975  0.81540935    -0.53500
C1327       C  0.70451922  0.87161926  0.80228747     0.09700
C1328       C  0.72312980  0.85491175  0.81858255     0.20600
C1329       C  0.69707898  0.86829332  0.85467068    -0.54200
C1330       C  0.70660423  0.84765928  0.84169062     0.09800
C1331       C  0.73499621  0.89401784  0.84168932    -0.53700
C1332       C  0.74431395  0.87310478  0.82922997     0.10400
H1333       H  0.68118811  0.90580126  0.80739642     0.14900
H1334       H  0.73175399  0.83806888  0.80880068     0.00600
H1335       H  0.68379273  0.86613907  0.87055905     0.15200
H1336       H  0.74770167  0.90849133  0.85050106     0.15000
C1337       C  0.85081379  0.89247486  0.65219112     0.86800
C1338       C  0.85870561  0.89430109  0.68062041    -0.53500
C1339       C  0.84846931  0.87506181  0.69551213     0.09700
C1340       C  0.83034720  0.85634888  0.68075331     0.20600
C1341       C  0.85870321  0.86436228  0.64463642    -0.54200
C1342       C  0.84765549  0.84556632  0.65976192     0.09800
C1343       C  0.82101822  0.89165053  0.65170565    -0.53700
C1344       C  0.81028191  0.87280716  0.66640363     0.10400
H1345       H  0.87340094  0.90786989  0.68760790     0.14900
H1346       H  0.82155263  0.84125600  0.69315873     0.00600
H1347       H  0.87208354  0.85934693  0.62962523     0.15200
H1348       H  0.80934686  0.90467966  0.64013009     0.15000
C1349       C  0.90034059  0.85098662  0.83916404     0.86800
C1350       C  0.90409592  0.85603175  0.81044982    -0.53500
C1351       C  0.88582374  0.84431906  0.79514416     0.09700
C1352       C  0.86554332  0.82836226  0.80992526     0.20600
C1353       C  0.87206004  0.85998920  0.84395629    -0.54200
C1354       C  0.85386734  0.84824004  0.82829074     0.09800
C1355       C  0.89891229  0.82149409  0.84214285    -0.53700
C1356       C  0.88066852  0.80960227  0.82726874     0.10400
H1357       H  0.91851158  0.86953553  0.80310434     0.14900
H1358       H  0.85095973  0.81833317  0.79759968     0.00600
H1359       H  0.86657381  0.87489548  0.85737097     0.15200
H1360       H  0.91137254  0.81088855  0.85526265     0.15000
O1361       O  0.86997308  0.57447113  0.93941905    -0.57500
C1362       C  0.90240472  0.48222836  0.94942765     0.75100
O1363       O  0.92022815  0.54430098  0.96655313    -0.58700
C1364       C  0.87098485  0.56949442  0.91583119     0.75100
C1365       C  0.82513247  0.52207368  0.97883302     0.77500
Cd1366     Cd  0.87558211  0.53091999  0.95567333     1.37500
O1367       O  0.89607552  0.49580118  0.93018670    -0.57500
O1368       O  0.84548039  0.52695143  0.99177812    -0.56300
C1369       C  0.91377876  0.56180559  0.98214234     0.77400
O1370       O  0.82821343  0.51984084  0.95490469    -0.58700
O1371       O  0.89460197  0.49032194  0.97086982    -0.57200
O1372       O  0.87267743  0.54568265  0.90992318    -0.57200
O1373       O  0.88985112  0.56329440  0.98716781    -0.56300
O1374       O  0.05312587  0.65048908  0.57344985    -0.57500
C1375       C  0.98177789  0.67523068  0.58822876     0.75100
O1376       O  0.02143180  0.70326018  0.51083028    -0.58700
C1377       C  0.06960606  0.64881795  0.55568426     0.75100
C1378       C  0.98947711  0.63662228  0.51834719     0.77500
Cd1379     Cd  0.01960487  0.67310310  0.54744802     1.37500
O1380       O  0.00365071  0.68653743  0.59109644    -0.57500
O1381       O  0.01052342  0.62997139  0.52909156    -0.56300
C1382       C  0.02483145  0.72372504  0.52383473     0.77400
O1383       O  0.98420336  0.66054895  0.51870199    -0.58700
O1384       O  0.97872161  0.66272015  0.56772859    -0.57200
O1385       O  0.06356724  0.65983635  0.53490741    -0.57200
O1386       O  0.02643547  0.72071675  0.54783162    -0.56300
O1387       O  0.86913499  0.00285845  0.58914957    -0.57500
C1388       C  0.90396863  0.06717244  0.54851711     0.75100
O1389       O  0.89121356  0.98702962  0.51217594    -0.58700
C1390       C  0.87219747  0.97906087  0.58370648     0.75100
C1391       C  0.82672798  0.02649083  0.51944038     0.77500
Cd1392     Cd  0.87682666  0.01805081  0.54392343     1.37500
O1393       O  0.89592834  0.05547904  0.56830358    -0.57500
O1394       O  0.82994187  0.02907525  0.54336766    -0.56300
C1395       C  0.91492648  0.98790279  0.51892137     0.77400
O1396       O  0.84673787  0.02058334  0.50696904    -0.58700
O1397       O  0.89800202  0.05681036  0.52732122    -0.57200
O1398       O  0.87637417  0.97403247  0.56053429    -0.57200
O1399       O  0.92129956  0.00465774  0.53561415    -0.56300
O1400       O  0.04995633  0.90183231  0.92952909    -0.57500
C1401       C  0.98246718  0.87472717  0.91266087     0.75100
O1402       O  0.02177919  0.84664460  0.99136625    -0.58700
C1403       C  0.06756270  0.90245592  0.94658341     0.75100
C1404       C  0.98883972  0.91263127  0.98469117     0.77500
Cd1405     Cd  0.01836068  0.87703819  0.95525227     1.37500
O1406       O  0.00412234  0.86322002  0.91160833    -0.57500
O1407       O  0.01077701  0.91913355  0.97592626    -0.56300
C1408       C  0.02373551  0.82622770  0.97812514     0.77400
O1409       O  0.98225932  0.88903027  0.98228305    -0.58700
O1410       O  0.97839381  0.88757166  0.93271686    -0.57200
O1411       O  0.06306606  0.88952834  0.96662044    -0.57200
O1412       O  0.02362312  0.82933883  0.95411456    -0.56300
O1413       O  0.55017159  0.68120174  0.90880853    -0.57500
C1414       C  0.48619766  0.64780733  0.94949015     0.75100
O1415       O  0.56610758  0.65863425  0.98784653    -0.58700
C1416       C  0.57414032  0.67899155  0.91435799     0.75100
C1417       C  0.52963626  0.72453876  0.97795537     0.77500
Cd1418     Cd  0.53625138  0.67392265  0.95435144     1.37500
O1419       O  0.49865117  0.65456717  0.92974380    -0.57500
O1420       O  0.52824367  0.72136192  0.95393937    -0.56300
C1421       C  0.56766743  0.63575363  0.97916633     0.77400
O1422       O  0.53343572  0.70424728  0.99095203    -0.58700
O1423       O  0.49633219  0.65435229  0.97067131    -0.57200
O1424       O  0.57959437  0.67598616  0.93770743    -0.57200
O1425       O  0.55305455  0.63014451  0.96031547    -0.56300
O1426       O  0.65351108  0.49177067  0.57425967    -0.57500
C1427       C  0.67144134  0.56252832  0.59352309     0.75100
O1428       O  0.70338320  0.52530237  0.51342205    -0.58700
C1429       C  0.64835813  0.47781197  0.55488282     0.75100
C1430       C  0.64034895  0.56133096  0.51911704     0.77500
Cd1431     Cd  0.67262661  0.52838179  0.54942813     1.37500
O1432       O  0.68956162  0.54629502  0.59068063    -0.57500
O1433       O  0.63262398  0.53911680  0.52613704    -0.56300
C1434       C  0.72382504  0.52363718  0.52691062     0.77400
O1435       O  0.66372789  0.56731849  0.52430394    -0.58700
O1436       O  0.65303875  0.56118424  0.57743773    -0.57200
O1437       O  0.65622095  0.48643656  0.53371945    -0.57200
O1438       O  0.72062184  0.52388655  0.55088340    -0.56300
O1439       O  0.54763062  0.87614107  0.59017603    -0.57500
C1440       C  0.48134172  0.90353813  0.55132397     0.75100
O1441       O  0.55291551  0.89921775  0.50779560    -0.58700
C1442       C  0.57092090  0.87142378  0.58400030     0.75100
C1443       C  0.52627204  0.82756180  0.52312384     0.77500
Cd1444     Cd  0.53177662  0.87915823  0.54509091     1.37500
O1445       O  0.49471908  0.89661634  0.57056281    -0.57500
O1446       O  0.52348190  0.83141545  0.54687590    -0.56300
C1447       C  0.56151459  0.91880979  0.51993902     0.77400
O1448       O  0.53046711  0.84755356  0.50975885    -0.58700
O1449       O  0.49060084  0.89778336  0.52977774    -0.57200
O1450       O  0.57530545  0.86968955  0.56031839    -0.57200
O1451       O  0.55520025  0.92049619  0.54317380    -0.56300
O1452       O  0.65325556  0.05539291  0.92215114    -0.57500
C1453       C  0.68328173  0.98185065  0.91089357     0.75100
O1454       O  0.70459486  0.02208528  0.98467419    -0.58700
C1455       C  0.64807144  0.06961176  0.94115764     0.75100
C1456       C  0.63407398  0.99090790  0.97452711     0.77500
Cd1457     Cd  0.67352296  0.02060690  0.94881060     1.37500
O1458       O  0.67479348  0.00381251  0.90404152    -0.57500
O1459       O  0.63302687  0.99581652  0.95089613    -0.56300
C1460       C  0.72441339  0.02850161  0.97196502     0.77400
O1461       O  0.65304900  0.00077779  0.98678038    -0.58700
O1462       O  0.68806636  0.97903983  0.93448719    -0.57200
O1463       O  0.65651640  0.06197198  0.96259405    -0.57200
O1464       O  0.72067632  0.03227128  0.94824653    -0.56300
O1465       O  0.50200973  0.37324406  0.59101393    -0.57500
C1466       C  0.56763770  0.40054979  0.55330816     0.75100
O1467       O  0.51838080  0.34442761  0.51044233    -0.58700
C1468       C  0.47832210  0.36964711  0.58487755     0.75100
C1469       C  0.48889206  0.41629006  0.52183289     0.77500
Cd1470     Cd  0.51740846  0.37578191  0.54617085     1.37500
O1471       O  0.55485047  0.39233577  0.57226911    -0.57500
O1472       O  0.49592483  0.41731356  0.54501287    -0.56300
C1473       C  0.52362169  0.32462980  0.52370069     0.77400
O1474       O  0.49642338  0.39688150  0.50907929    -0.58700
O1475       O  0.55795131  0.39573156  0.53149995    -0.57200
O1476       O  0.47341675  0.36752119  0.56120339    -0.57200
O1477       O  0.52639491  0.32848996  0.54751516    -0.56300
O1478       O  0.39697765  0.55789600  0.92906226    -0.57500
C1479       C  0.36813243  0.48202640  0.91502666     0.75100
O1480       O  0.39909553  0.49838192  0.99008758    -0.58700
C1481       C  0.40504103  0.57012605  0.94867960     0.75100
C1482       C  0.32791556  0.52874312  0.97724703     0.77500
Cd1483     Cd  0.37820919  0.52076598  0.95370378     1.37500
O1484       O  0.37636207  0.50430828  0.90847123    -0.57500
O1485       O  0.33171662  0.53441871  0.95396607    -0.56300
C1486       C  0.41794879  0.48983935  0.97725861     0.77400
O1487       O  0.34742209  0.52025242  0.98939753    -0.58700
O1488       O  0.36307089  0.47914481  0.93846527    -0.57200
O1489       O  0.39904550  0.56034732  0.97000380    -0.57200
O1490       O  0.41883772  0.49672315  0.95412742    -0.56300
O1491       O  0.55273394  0.15105244  0.92829762    -0.57500
C1492       C  0.47843632  0.17750065  0.91991028     0.75100
O1493       O  0.49973338  0.14816595  0.99407599    -0.58700
C1494       C  0.56862203  0.14641399  0.94630957     0.75100
C1495       C  0.52550366  0.22115510  0.97965867     0.77500
Cd1496     Cd  0.51925776  0.17008765  0.95674703     1.37500
O1497       O  0.50206256  0.17966941  0.91339854    -0.57500
O1498       O  0.52755106  0.21747690  0.95581323    -0.56300
C1499       C  0.49269371  0.12816555  0.98156416     0.77400
O1500       O  0.52131269  0.20110464  0.99298475    -0.58700
O1501       O  0.47429139  0.17307768  0.94327272    -0.57200
O1502       O  0.56225912  0.15442247  0.96820128    -0.57200
O1503       O  0.49958787  0.12713767  0.95846843    -0.56300
O1504       O  0.39514724  0.99316820  0.57506680    -0.57500
C1505       C  0.36998089  0.06980777  0.58845819     0.75100
O1506       O  0.39865835  0.05099001  0.51359965    -0.58700
C1507       C  0.40053625  0.97982301  0.55547029     0.75100
C1508       C  0.32506605  0.02473672  0.52727354     0.77500
Cd1509     Cd  0.37662675  0.03020526  0.55015647     1.37500
O1510       O  0.37410963  0.04652629  0.59512874    -0.57500
O1511       O  0.32897711  0.02037313  0.55085926    -0.56300
C1512       C  0.41890153  0.05730616  0.52622639     0.77400
O1513       O  0.34492256  0.03102200  0.51452751    -0.58700
O1514       O  0.36790515  0.07388711  0.56468297    -0.57200
O1515       O  0.39252946  0.98869456  0.53432772    -0.57200
O1516       O  0.41977643  0.05003477  0.54925711    -0.56300
O1517       O  0.99581688  0.15384076  0.57071871    -0.57500
C1518       C  0.07077523  0.18064263  0.58629236     0.75100
O1519       O  0.05340757  0.15232103  0.50964714    -0.58700
C1520       C  0.98302902  0.14712119  0.55093145     0.75100
C1521       C  0.02642679  0.22442047  0.52210042     0.77500
Cd1522     Cd  0.03241516  0.17378163  0.54618658     1.37500
O1523       O  0.04678450  0.18279947  0.59124550    -0.57500
O1524       O  0.01960890  0.22039834  0.54499358    -0.56300
C1525       C  0.05959712  0.13223192  0.52218187     0.77400
O1526       O  0.03574297  0.20512976  0.51050929    -0.58700
O1527       O  0.07639895  0.17697072  0.56311969    -0.57200
O1528       O  0.99216617  0.15462557  0.52983237    -0.57200
O1529       O  0.05236556  0.13126479  0.54519408    -0.56300
O1530       O  0.15370594  0.99483739  0.92942056    -0.57500
C1531       C  0.17984672  0.07162417  0.91792152     0.75100
O1532       O  0.15077914  0.05190135  0.99253536    -0.58700
C1533       C  0.14704840  0.98113464  0.94840354     0.75100
C1534       C  0.22211578  0.02445176  0.98044703     0.77500
Cd1535     Cd  0.17187250  0.03123898  0.95578286     1.37500
O1536       O  0.17606495  0.04828966  0.91091695    -0.57500
O1537       O  0.21880368  0.02067662  0.95665577    -0.56300
C1538       C  0.13067558  0.05850694  0.98009765     0.77400
O1539       O  0.20207218  0.03057016  0.99279113    -0.58700
O1540       O  0.18152093  0.07534881  0.94179815    -0.57200
O1541       O  0.15358719  0.98979291  0.97015819    -0.57200
O1542       O  0.12931165  0.05129035  0.95702037    -0.56300
O1543       O  0.15163835  0.55453196  0.57300470    -0.57500
C1544       C  0.17864842  0.48379502  0.58601061     0.75100
O1545       O  0.16182670  0.48830123  0.51582743    -0.58700
C1546       C  0.14926407  0.57161973  0.55577668     0.75100
C1547       C  0.22542913  0.52998484  0.52302365     0.77500
Cd1548     Cd  0.17462311  0.52252543  0.54593437     1.37500
O1549       O  0.18571604  0.50701929  0.59066447    -0.57500
O1550       O  0.22248338  0.52799280  0.54695873    -0.56300
C1551       C  0.13760959  0.49192781  0.51724348     0.77400
O1552       O  0.20478048  0.52940563  0.50970025    -0.58700
O1553       O  0.17003544  0.47953100  0.56376423    -0.57200
O1554       O  0.16023156  0.56673131  0.53478200    -0.57200
O1555       O  0.13053770  0.51178687  0.52950743    -0.56300
O1556       O  0.99482189  0.39843469  0.92907163    -0.57500
C1557       C  0.06782603  0.37825123  0.91073952     0.75100
O1558       O  0.06626828  0.39229034  0.98329271    -0.58700
C1559       C  0.98199658  0.40409743  0.94886787     0.75100
C1560       C  0.02607554  0.32692637  0.97560855     0.77500
Cd1561     Cd  0.03191106  0.37865770  0.95317146     1.37500
O1562       O  0.04428940  0.37129417  0.90735521    -0.57500
O1563       O  0.02689675  0.33022490  0.95162954    -0.56300
C1564       C  0.06258766  0.41639536  0.98043926     0.77400
O1565       O  0.02754035  0.34738149  0.98891877    -0.58700
O1566       O  0.07406530  0.38499792  0.93316226    -0.57200
O1567       O  0.99138217  0.39623609  0.96985619    -0.57200
O1568       O  0.04331554  0.42277275  0.96672767    -0.56300
C1569       C  0.08092381  0.43595254  0.99101461    -0.05200
C1570       C  0.10603597  0.42818930  0.49804874    -0.32600
C1571       C  0.12487473  0.44639187  0.50556561     0.36600
C1572       C  0.11862641  0.47292723  0.50683835    -0.05500
C1573       C  0.09337607  0.48071686  0.00029122    -0.32500
C1574       C  0.07466264  0.46252011  0.99214653     0.36500
H1575       H  0.11136523  0.40793311  0.49716262     0.16900
O1576       O  0.14904214  0.43784096  0.51267134    -0.60000
H1577       H  0.08816178  0.50099092  0.00138022     0.16900
O1578       O  0.05043904  0.47099267  0.98515570    -0.60100
H1579       H  0.03983571  0.46952542  0.00082817     0.43900
H1580       H  0.15880988  0.43632606  0.49648868     0.43900
C1581       C  0.02424593  0.25035922  0.50976017    -0.05200
C1582       C  0.02095239  0.27256152  0.52493662    -0.32600
C1583       C  0.02081666  0.29743019  0.51406784     0.36600
C1584       C  0.02409743  0.30065290  0.98744412    -0.05500
C1585       C  0.02632195  0.27834933  0.97214097    -0.32500
C1586       C  0.02631050  0.25346466  0.98301393     0.36500
H1587       H  0.01907339  0.27074148  0.54547519     0.16900
O1588       O  0.01804083  0.31845736  0.52985264    -0.60000
H1589       H  0.02852680  0.28016267  0.95163768     0.16900
O1590       O  0.02862513  0.23235361  0.96724659    -0.60100
H1591       H  0.01053082  0.22680917  0.96325126     0.43900
H1592       H  0.99904989  0.32138877  0.53063334     0.43900
C1593       C  0.11041477  0.07495224  0.99127621    -0.05200
C1594       C  0.09420262  0.08924820  0.97487104    -0.32600
C1595       C  0.07692901  0.10744303  0.98461832     0.36600
C1596       C  0.07549481  0.11142490  0.51119117    -0.05500
C1597       C  0.09067949  0.09612654  0.52765106    -0.32500
C1598       C  0.10812429  0.07810159  0.51790554     0.36500
H1599       H  0.09557437  0.08705661  0.95431722     0.16900
O1600       O  0.06199752  0.12159459  0.96797092    -0.60000
H1601       H  0.08977844  0.09882093  0.54817894     0.16900
O1602       O  0.12331673  0.06425008  0.53457851    -0.60100
H1603       H  0.11303147  0.04842544  0.53852510     0.43900
H1604       H  0.04634724  0.11070799  0.96459697     0.43900
C1605       C  0.29871933  0.02308835  0.51527952    -0.05200
C1606       C  0.27648168  0.02297702  0.53068975    -0.32600
C1607       C  0.25143359  0.02309302  0.51976671     0.36600
C1608       C  0.24817154  0.02271076  0.99289373    -0.05500
C1609       C  0.27039186  0.02196755  0.97756865    -0.32500
C1610       C  0.29538042  0.02249310  0.98844385     0.36500
H1611       H  0.27847109  0.02344032  0.55133137     0.16900
O1612       O  0.23034207  0.02335693  0.53559952    -0.60000
H1613       H  0.26847971  0.02167546  0.95691870     0.16900
O1614       O  0.31640660  0.02212041  0.97254523    -0.60100
H1615       H  0.31874929  0.04031274  0.96681532     0.43900
H1616       H  0.22778582  0.04187351  0.53997723     0.43900
C1617       C  0.43996406  0.07313859  0.51498430    -0.05200
C1618       C  0.44177283  0.07519247  0.98833078    -0.32600
C1619       C  0.45973750  0.09214469  0.97721291     0.36600
C1620       C  0.47612403  0.10771165  0.99282834    -0.05500
C1621       C  0.47494153  0.10501876  0.51946641    -0.32500
C1622       C  0.45732785  0.08765467  0.53057760     0.36500
H1623       H  0.42880589  0.06404161  0.97601494     0.16900
O1624       O  0.46030973  0.09406519  0.95105772    -0.60000
H1625       H  0.48738991  0.11675550  0.53176824     0.16900
O1626       O  0.45624112  0.08624498  0.55673589    -0.60100
H1627       H  0.46920996  0.07299797  0.56162672     0.43900
H1628       H  0.44771656  0.10784353  0.94667356     0.43900
C1629       C  0.30198854  0.53116669  0.98947395    -0.05200
C1630       C  0.28002693  0.53729562  0.97453474    -0.32600
C1631       C  0.25510686  0.53774654  0.98522920     0.36600
C1632       C  0.25165894  0.53197228  0.51138345    -0.05500
C1633       C  0.27371463  0.52683725  0.52649137    -0.32500
C1634       C  0.29857304  0.52625520  0.51581971     0.36500
H1635       H  0.28205351  0.54126890  0.95431214     0.16900
O1636       O  0.23426583  0.54339993  0.96975273    -0.60000
H1637       H  0.27169051  0.52253312  0.54665159     0.16900
O1638       O  0.31937054  0.52083913  0.53145033    -0.60100
H1639       H  0.31961706  0.50166042  0.53279834     0.43900
H1640       H  0.23197338  0.56240246  0.97137073     0.43900
C1641       C  0.52709779  0.24756469  0.99109549    -0.05200
C1642       C  0.52532122  0.26939084  0.97514860    -0.32600
C1643       C  0.52480149  0.29452565  0.98536643     0.36600
C1644       C  0.52589919  0.29835813  0.51211742    -0.05500
C1645       C  0.52854416  0.27656705  0.52801748    -0.32500
C1646       C  0.52927992  0.25143433  0.51776458     0.36500
H1647       H  0.52377494  0.26700498  0.95459918     0.16900
O1648       O  0.52264513  0.31511696  0.96894265    -0.60000
H1649       H  0.52970354  0.27892486  0.54858795     0.16900
O1650       O  0.53181713  0.23081552  0.53409513    -0.60100
H1651       H  0.55081359  0.22865892  0.53649235     0.43900
H1652       H  0.54072399  0.31948024  0.96402209     0.43900
C1653       C  0.47204748  0.43633109  0.51062860    -0.05200
C1654       C  0.47162161  0.44019123  0.98410999    -0.32600
C1655       C  0.45471859  0.45813649  0.97301656     0.36600
C1656       C  0.43749190  0.47226395  0.98850887    -0.05500
C1657       C  0.43812759  0.46849324  0.51506292    -0.32500
C1658       C  0.45529947  0.45087278  0.52616601     0.36500
H1659       H  0.48429968  0.42912204  0.97188595     0.16900
O1660       O  0.45440113  0.46074956  0.94691744    -0.60000
H1661       H  0.42499316  0.47897006  0.52731774     0.16900
O1662       O  0.45439279  0.44690184  0.55208102    -0.60100
H1663       H  0.46568944  0.46063670  0.55965214     0.43900
H1664       H  0.46840609  0.47347489  0.94314320     0.43900
C1665       C  0.59244611  0.13093990  0.94258914    -0.05200
C1666       C  0.59582446  0.11674101  0.91987746    -0.32600
C1667       C  0.61514487  0.09775242  0.91820821     0.36600
C1668       C  0.63161970  0.09299372  0.93939417    -0.05500
C1669       C  0.62963247  0.10884376  0.96111204    -0.32500
C1670       C  0.61036241  0.12756467  0.96285956     0.36500
H1671       H  0.58245921  0.11915017  0.90394277     0.16900
O1672       O  0.61673154  0.08307673  0.89638311    -0.60000
H1673       H  0.64224415  0.10582684  0.97752958     0.16900
O1674       O  0.60827787  0.14123633  0.98524947    -0.60100
H1675       H  0.61770789  0.15778562  0.98222645     0.43900
H1676       H  0.60310972  0.06946922  0.89807205     0.43900
C1677       C  0.45710422  0.91891304  0.55364583    -0.05200
C1678       C  0.45085223  0.93058746  0.57710550    -0.32600
C1679       C  0.43117056  0.94924309  0.57858311     0.36600
C1680       C  0.41706569  0.95629435  0.55640510    -0.05500
C1681       C  0.42181914  0.94288508  0.53352720    -0.32500
C1682       C  0.44155511  0.92448732  0.53198880     0.36500
H1683       H  0.46226743  0.92644474  0.59410013     0.16900
O1684       O  0.42687058  0.96133036  0.60151598    -0.60000
H1685       H  0.41112430  0.94764933  0.51624144     0.16900
O1686       O  0.44640054  0.91325907  0.50874728    -0.60100
H1687       H  0.43483553  0.89778836  0.50793162     0.43900
H1688       H  0.43982365  0.97567588  0.60240817     0.43900
C1689       C  0.61455162  0.97378747  0.98662716    -0.05200
C1690       C  0.59756749  0.95918390  0.97093218    -0.32600
C1691       C  0.58013559  0.94127669  0.98142223     0.36600
C1692       C  0.57883261  0.93828511  0.50812662    -0.05500
C1693       C  0.59527824  0.95339644  0.52388775    -0.32500
C1694       C  0.61329628  0.97072839  0.51336665     0.36500
H1695       H  0.59821811  0.96109943  0.95031713     0.16900
O1696       O  0.56422733  0.92710242  0.96538560    -0.60000
H1697       H  0.59474854  0.95122446  0.54448548     0.16900
O1698       O  0.62945134  0.98458887  0.52943385    -0.60100
H1699       H  0.64414692  0.97286163  0.53325621     0.43900
H1700       H  0.57508066  0.91262890  0.95921483     0.43900
C1701       C  0.63212127  0.45393503  0.55641429    -0.05200
C1702       C  0.61751191  0.44915968  0.57850676    -0.32600
C1703       C  0.59737233  0.43065185  0.57838588     0.36600
C1704       C  0.59181116  0.41622961  0.55601657    -0.05500
C1705       C  0.60790677  0.41944673  0.53469789    -0.32500
C1706       C  0.62797139  0.43793876  0.53479403     0.36500
H1707       H  0.62041324  0.46106408  0.59540096     0.16900
O1708       O  0.58215108  0.42820456  0.59964407    -0.60000
H1709       H  0.60422303  0.40835755  0.51739839     0.16900
O1710       O  0.64231989  0.44121303  0.51304941    -0.60100
H1711       H  0.65723800  0.42933309  0.51504089     0.43900
H1712       H  0.56840023  0.44140732  0.59756431     0.43900
C1713       C  0.46195916  0.63183844  0.94825483    -0.05200
C1714       C  0.45370296  0.62054399  0.92501241    -0.32600
C1715       C  0.43367978  0.60180463  0.92439221     0.36600
C1716       C  0.42192781  0.59364916  0.94733934    -0.05500
C1717       C  0.42876520  0.60651205  0.97015743    -0.32500
C1718       C  0.44827401  0.62555597  0.97071684     0.36500
H1719       H  0.46354273  0.62535314  0.90740203     0.16900
O1720       O  0.42698313  0.59049008  0.90148777    -0.60000
H1721       H  0.41965798  0.60110899  0.98799289     0.16900
O1722       O  0.45464441  0.63690260  0.99370117    -0.60100
H1723       H  0.44285227  0.65191447  0.99520350     0.43900
H1724       H  0.41353654  0.60191869  0.89399417     0.43900
C1725       C  0.52738642  0.75061054  0.99001202    -0.05200
C1726       C  0.52436627  0.77254443  0.97440525    -0.32600
C1727       C  0.52341755  0.79751539  0.98491846     0.36600
C1728       C  0.52542743  0.80114126  0.51163412    -0.05500
C1729       C  0.52791358  0.77919538  0.52734233    -0.32500
C1730       C  0.52896400  0.75417276  0.51680576     0.36500
H1731       H  0.52307612  0.77043836  0.95381549     0.16900
O1732       O  0.52092273  0.81826169  0.96873864    -0.60000
H1733       H  0.52968901  0.78143789  0.54789228     0.16900
O1734       O  0.53233637  0.73349089  0.53291659    -0.60100
H1735       H  0.51453069  0.72773177  0.53743993     0.43900
H1736       H  0.50195322  0.82115733  0.96719860     0.43900
C1737       C  0.62252403  0.58007168  0.50726304    -0.05200
C1738       C  0.62629666  0.60656310  0.51233396    -0.32600
C1739       C  0.60821137  0.62481885  0.50400995     0.36600
C1740       C  0.58623416  0.61676943  0.98965692    -0.05500
C1741       C  0.58287417  0.59030344  0.98396539    -0.32500
C1742       C  0.60057988  0.57195872  0.99300263     0.36500
H1743       H  0.64294140  0.61311794  0.52352161     0.16900
O1744       O  0.61264980  0.65052504  0.50941593    -0.60000
H1745       H  0.56630902  0.58373231  0.97268540     0.16900
O1746       O  0.59660027  0.54625622  0.98726109    -0.60100
H1747       H  0.58391807  0.53992956  0.00003222     0.43900
H1748       H  0.60612540  0.65304443  0.52702455     0.43900
C1749       C  0.09125903  0.91886657  0.94432005    -0.05200
C1750       C  0.10836189  0.92084247  0.96535228    -0.32600
C1751       C  0.12785979  0.93989851  0.96621861     0.36600
C1752       C  0.13079581  0.95737077  0.94569477    -0.05500
C1753       C  0.11524690  0.95392671  0.92370614    -0.32500
C1754       C  0.09541596  0.93509107  0.92299368     0.36500
H1755       H  0.10577622  0.90850677  0.48190538     0.16900
O1756       O  0.14296805  0.94212958  0.48787305    -0.60000
H1757       H  0.11722938  0.96702479  0.90765036     0.16900
O1758       O  0.07954540  0.93356204  0.90180709    -0.60100
H1759       H  0.06640953  0.94728864  0.90418552     0.43900
H1760       H  0.15805339  0.93074464  0.48485975     0.43900
C1761       C  0.95958977  0.13010485  0.55169221    -0.05200
C1762       C  0.94729034  0.12336966  0.52849621    -0.32600
C1763       C  0.92825943  0.10389129  0.52737793     0.36600
C1764       C  0.92074926  0.09076673  0.54984228    -0.05500
C1765       C  0.93167091  0.09876381  0.57335651    -0.32500
C1766       C  0.95093885  0.11822283  0.57441690     0.36500
H1767       H  0.95324818  0.13239970  0.51077212     0.16900
O1768       O  0.91761662  0.09747949  0.50402413    -0.60000
H1769       H  0.92618851  0.08907230  0.59088634     0.16900
O1770       O  0.96218590  0.12426632  0.59756778    -0.60100
H1771       H  0.95168962  0.13866505  0.60444201     0.43900
H1772       H  0.93053828  0.08611352  0.49576688     0.43900
C1773       C  0.80084982  0.02939358  0.50691527    -0.05200
C1774       C  0.77854934  0.03081692  0.52209125    -0.32600
C1775       C  0.75368396  0.03135401  0.51099851     0.36600
C1776       C  0.75058796  0.03056314  0.98413988    -0.05500
C1777       C  0.77291634  0.03027458  0.96890588    -0.32500
C1778       C  0.79782753  0.02951702  0.98002326     0.36500
H1779       H  0.78028751  0.03086854  0.54275595     0.16900
O1780       O  0.73253807  0.03211850  0.52672540    -0.60000
H1781       H  0.77109348  0.02982301  0.94825090     0.16900
O1782       O  0.81903613  0.02896039  0.96435512    -0.60100
H1783       H  0.82098607  0.01049264  0.95947870     0.43900
H1784       H  0.72891815  0.05081293  0.52911846     0.43900
C1785       C  0.97065763  0.93181662  0.99497328    -0.05200
C1786       C  0.94396141  0.92625075  0.99338603    -0.32600
C1787       C  0.92566319  0.94477713  0.50000890     0.36600
C1788       C  0.93390934  0.96922722  0.50916927    -0.05500
C1789       C  0.96063414  0.97474178  0.51117686    -0.32500
C1790       C  0.97898875  0.95639263  0.50375224     0.36500
H1791       H  0.93711521  0.90762322  0.98629275     0.16900
O1792       O  0.89977588  0.93832538  0.49843793    -0.60000
H1793       H  0.96732974  0.99334684  0.51845129     0.16900
O1794       O  0.00493838  0.96243570  0.50576309    -0.60100
H1795       H  0.00888754  0.97288577  0.49035147     0.43900
H1796       H  0.89489332  0.94087184  0.98022678     0.43900
C1797       C  0.13296803  0.59508256  0.55902514    -0.05200
C1798       C  0.13180320  0.61358123  0.53932562    -0.32600
C1799       C  0.11246005  0.63256349  0.53892278     0.36600
C1800       C  0.09365878  0.63324063  0.55839317    -0.05500
C1801       C  0.09643904  0.61641367  0.57933178    -0.32500
C1802       C  0.11599587  0.59766975  0.57989814     0.36500
H1803       H  0.14512600  0.61258996  0.52344655     0.16900
O1804       O  0.11177120  0.64991072  0.51906196    -0.60000
H1805       H  0.08256100  0.61680277  0.59476718     0.16900
O1806       O  0.11705576  0.58084081  0.60014035    -0.60100
H1807       H  0.12834242  0.58958808  0.61305243     0.43900
H1808       H  0.10352818  0.64038142  0.50457727     0.43900
C1809       C  0.02560931  0.80012719  0.98997894    -0.05200
C1810       C  0.02586533  0.77793681  0.97434949    -0.32600
C1811       C  0.02632884  0.75301294  0.98499277     0.36600
C1812       C  0.02624838  0.74980029  0.51181392    -0.05500
C1813       C  0.02667131  0.77200460  0.52741119    -0.32500
C1814       C  0.02649514  0.79690707  0.51678197     0.36500
H1815       H  0.02540873  0.77983091  0.95371845     0.16900
O1816       O  0.02637230  0.73198452  0.96890717    -0.60000
H1817       H  0.02676038  0.77013016  0.54804383     0.16900
O1818       O  0.02662143  0.81790558  0.53290458    -0.60100
H1819       H  0.04524149  0.82225116  0.53572874     0.43900
H1820       H  0.04494487  0.72891806  0.96515929     0.43900
C1821       C  0.91929836  0.45902640  0.94761669    -0.05200
C1822       C  0.92508441  0.44507588  0.96998541    -0.32600
C1823       C  0.94425355  0.42601962  0.97028714     0.36600
C1824       C  0.95832330  0.42046449  0.94790832    -0.05500
C1825       C  0.95130004  0.43309963  0.92508288    -0.32500
C1826       C  0.93198240  0.45217297  0.92478328     0.36500
H1827       H  0.91548475  0.44968379  0.98774901     0.16900
O1828       O  0.95000248  0.41404467  0.99302102    -0.60000
H1829       H  0.96168322  0.42914386  0.90760509     0.16900
O1830       O  0.92697644  0.46511200  0.90241200    -0.60100
H1831       H  0.91371946  0.45437602  0.89334437     0.43900
H1832       H  0.93846160  0.39855309  0.99351359     0.43900
C1833       C  0.79922000  0.52025772  0.99120292    -0.05200
C1834       C  0.79708470  0.52622586  0.01736585    -0.32600
C1835       C  0.77283442  0.52708985  0.52928014     0.36600
C1836       C  0.74993015  0.52174758  0.51513856    -0.05500
C1837       C  0.75205999  0.51512957  0.48914593    -0.32500
C1838       C  0.77634867  0.51431022  0.97719677     0.36500
H1839       H  0.81427327  0.53093002  0.02862494     0.16900
O1840       O  0.77180977  0.53375942  0.55465161    -0.60000
H1841       H  0.73478274  0.51067253  0.47792054     0.16900
O1842       O  0.77742842  0.50751020  0.95186792    -0.60100
H1843       H  0.77381034  0.52369105  0.94230330     0.43900
H1844       H  0.77026097  0.55291526  0.55484082     0.43900
C1845       C  0.93304673  0.58038625  0.99268889    -0.05200
C1846       C  0.95956662  0.57417787  0.49269197    -0.32600
C1847       C  0.97835946  0.59236271  0.50060234     0.36600
C1848       C  0.97076843  0.61742019  0.50800511    -0.05500
C1849       C  0.94427587  0.62360457  0.00791184    -0.32500
C1850       C  0.92547018  0.60524903  0.00078396     0.36500
H1851       H  0.96576204  0.55515489  0.48655915     0.16900
O1852       O  0.00400716  0.58540150  0.50107858    -0.60000
H1853       H  0.93798011  0.64259342  0.01406940     0.16900
O1854       O  0.89981265  0.61220210  0.00093880    -0.60100
H1855       H  0.89394562  0.60890713  0.01866263     0.43900
H1856       H  0.01069912  0.59000158  0.48394065     0.43900
C1857       C  0.92241521  0.86182182  0.85591646    -0.05200
C1858       C  0.91781162  0.87786754  0.87714754    -0.32600
C1859       C  0.93742699  0.88310307  0.89519146     0.36600
C1860       C  0.96245161  0.87254912  0.89218631    -0.05500
C1861       C  0.96764371  0.85817451  0.87012258    -0.32500
C1862       C  0.94807430  0.85296251  0.85205854     0.36500
H1863       H  0.89885161  0.88556469  0.88092269     0.16900
O1864       O  0.93152624  0.89789281  0.91615135    -0.60000
H1865       H  0.98673052  0.85005080  0.86724511     0.16900
O1866       O  0.95375644  0.83735645  0.83162261    -0.60100
H1867       H  0.96238068  0.84891985  0.81910196     0.43900
H1868       H  0.92363220  0.88565458  0.92853750     0.43900
C1869       C  0.85982743  0.86804839  0.72081274    -0.05200
C1870       C  0.86653612  0.84209024  0.72549081    -0.32600
C1871       C  0.87692729  0.83449825  0.74904035     0.36600
C1872       C  0.88055007  0.85282310  0.76861616    -0.05500
C1873       C  0.87488548  0.87899651  0.76377664    -0.32500
C1874       C  0.86451427  0.88665678  0.74008791     0.36500
H1875       H  0.86369360  0.82745821  0.71090012     0.16900
O1876       O  0.88295974  0.80896943  0.75288920    -0.60000
H1877       H  0.87710771  0.89326914  0.77888711     0.16900
O1878       O  0.85800691  0.91210926  0.73640007    -0.60100
H1879       H  0.83930510  0.91308341  0.74063818     0.43900
H1880       H  0.90206758  0.80804112  0.75084705     0.43900
C1881       C  0.87044907  0.95785242  0.60284240    -0.05200
C1882       C  0.85705382  0.96165301  0.62568168    -0.32600
C1883       C  0.85232843  0.94093013  0.64237266     0.36600
C1884       C  0.86067136  0.91551027  0.63631437    -0.05500
C1885       C  0.87596775  0.91230247  0.61439162    -0.32500
C1886       C  0.88080421  0.93310303  0.59778776     0.36500
H1887       H  0.84922212  0.98053035  0.63016184     0.16900
O1888       O  0.83787210  0.94539957  0.66381271    -0.60000
H1889       H  0.88371102  0.89367807  0.60927880     0.16900
O1890       O  0.89583001  0.92898626  0.57664777    -0.60100
H1891       H  0.88407686  0.92062478  0.56388056     0.43900
H1892       H  0.85041647  0.95214462  0.67676319     0.43900
C1893       C  0.77231354  0.86694606  0.82903773    -0.05200
C1894       C  0.78460189  0.86222587  0.80580962    -0.32600
C1895       C  0.81113492  0.85644681  0.80516809     0.36600
C1896       C  0.82574136  0.85486670  0.82818902    -0.05500
C1897       C  0.81321657  0.85948584  0.85145478    -0.32500
C1898       C  0.78680045  0.86564291  0.85199191     0.36500
H1899       H  0.77369634  0.86354534  0.78802823     0.16900
O1900       O  0.82281522  0.85396243  0.78185574    -0.60000
H1901       H  0.82383689  0.85797846  0.86936986     0.16900
O1902       O  0.77501550  0.86923723  0.87512956    -0.60100
H1903       H  0.78077483  0.88668548  0.88098237     0.43900
H1904       H  0.81542644  0.83788927  0.77414880     0.43900
C1905       C  0.69728595  0.91725107  0.86048795    -0.05200
C1906       C  0.68352134  0.93889850  0.85129864    -0.32600
C1907       C  0.67858632  0.96017695  0.86733740     0.36600
C1908       C  0.68756651  0.96014318  0.89291380    -0.05500
C1909       C  0.70068500  0.93837238  0.90211878    -0.32500
C1910       C  0.70575410  0.91736540  0.88631939     0.36500
H1911       H  0.67695987  0.93993242  0.83167204     0.16900
O1912       O  0.66521867  0.98091445  0.85770096    -0.60000
H1913       H  0.70761596  0.93765261  0.92173625     0.16900
O1914       O  0.71932163  0.89689129  0.89635922    -0.60100
H1915       H  0.73747915  0.90322455  0.89838124     0.43900
H1916       H  0.64663336  0.97673982  0.86061411     0.43900
C1917       C  0.67393542  0.84904753  0.72767852    -0.05200
C1918       C  0.68244663  0.83015373  0.74476671    -0.32600
C1919       C  0.69191297  0.83679953  0.76912676     0.36600
C1920       C  0.69368080  0.86326347  0.77669656    -0.05500
C1921       C  0.68437878  0.88211635  0.75953467    -0.32500
C1922       C  0.67437709  0.87523336  0.73541561     0.36500
H1923       H  0.68233658  0.80995875  0.73896433     0.16900
O1924       O  0.70002212  0.81715635  0.78485768    -0.60000
H1925       H  0.68569628  0.90251205  0.76430496     0.16900
O1926       O  0.66742325  0.89450463  0.71872974    -0.60100
H1927       H  0.64993835  0.90002752  0.72423709     0.43900
H1928       H  0.68590307  0.80393401  0.78486293     0.43900
C1929       C  0.63318136  0.85704593  0.63817884    -0.05200
C1930       C  0.60894094  0.86617318  0.64667554    -0.32600
C1931       C  0.58866845  0.87145063  0.62939250     0.36600
C1932       C  0.59220052  0.86775505  0.60298081    -0.05500
C1933       C  0.61663342  0.85986570  0.59436135    -0.32500
C1934       C  0.63678059  0.85430774  0.61153097     0.36500
H1935       H  0.60473109  0.86825656  0.66670456     0.16900
O1936       O  0.56545631  0.88009369  0.63865244    -0.60000
H1937       H  0.62004658  0.85715454  0.57412486     0.16900
O1938       O  0.65986341  0.84556784  0.60199898    -0.60100
H1939       H  0.65691980  0.82691549  0.59821847     0.43900
H1940       H  0.55564455  0.86420859  0.64341852     0.43900
C1941       C  0.72843616  0.85443467  0.66697151    -0.05200
C1942       C  0.74111951  0.85864580  0.64369078    -0.32600
C1943       C  0.76767316  0.86484248  0.64319871     0.36600
C1944       C  0.78203411  0.86698868  0.66627085    -0.05500
C1945       C  0.76942003  0.86294338  0.68947626    -0.32500
C1946       C  0.74283181  0.85716350  0.69002003     0.36500
H1947       H  0.73057353  0.85647649  0.62577331     0.16900
O1948       O  0.77950879  0.86804742  0.62001315    -0.60000
H1949       H  0.78012716  0.86479112  0.70734836     0.16900
O1950       O  0.73110150  0.85484746  0.71330593    -0.60100
H1951       H  0.72786500  0.87289478  0.71892299     0.43900
H1952       H  0.78756848  0.85109681  0.61622172     0.43900
C1953       C  0.68541914  0.76825410  0.84045867    -0.05200
C1954       C  0.66748680  0.78681726  0.83230401    -0.32600
C1955       C  0.67316814  0.81321031  0.83506922     0.36600
C1956       C  0.69731386  0.82104403  0.84538171    -0.05500
C1957       C  0.71423831  0.80264864  0.85549499    -0.32500
C1958       C  0.70804287  0.77615794  0.85379444     0.36500
H1959       H  0.64951263  0.78081888  0.82298618     0.16900
O1960       O  0.65624631  0.83111035  0.82527424    -0.60000
H1961       H  0.73239609  0.80887888  0.86431724     0.16900
O1962       O  0.72288402  0.75814079  0.86649442    -0.60100
H1963       H  0.74115300  0.76446306  0.86644227     0.43900
H1964       H  0.64511961  0.83605339  0.83982827     0.43900
C1965       C  0.63699242  0.68806299  0.86093260    -0.05200
C1966       C  0.64087526  0.67562183  0.88457917    -0.32600
C1967       C  0.62039539  0.67162201  0.90146246     0.36600
C1968       C  0.59511804  0.68000481  0.89512282    -0.05500
C1969       C  0.59058506  0.69046719  0.87079965    -0.32500
C1970       C  0.61120910  0.69476129  0.85390076     0.36500
H1971       H  0.65991284  0.67027155  0.89129750     0.16900
O1972       O  0.62573401  0.66055785  0.92475631    -0.60000
H1973       H  0.57126515  0.69668682  0.86535595     0.16900
O1974       O  0.60615898  0.70685822  0.83105357    -0.60100
H1975       H  0.60459697  0.72553536  0.83525959     0.43900
H1976       H  0.62361417  0.64162536  0.92200028     0.43900
C1977       C  0.69684355  0.67796965  0.72718001    -0.05200
C1978       C  0.71679584  0.68531226  0.74401560    -0.32600
C1979       C  0.71138305  0.69496334  0.76840036     0.36600
C1980       C  0.68531428  0.69760065  0.77657220    -0.05500
C1981       C  0.66529287  0.69065476  0.75927439    -0.32500
C1982       C  0.67085069  0.68088782  0.73486481     0.36500
H1983       H  0.73687237  0.68342085  0.73826705     0.16900
O1984       O  0.73197397  0.70034505  0.78434021    -0.60000
H1985       H  0.64515968  0.69293057  0.76459215     0.16900
O1986       O  0.65074690  0.67559622  0.71819540    -0.60100
H1987       H  0.64373498  0.65849968  0.72357155     0.43900
H1988       H  0.74021550  0.71627265  0.77737234     0.43900
C1989       C  0.67269652  0.58316026  0.61335016    -0.05200
C1990       C  0.68945175  0.58044426  0.63440017    -0.32600
C1991       C  0.69502356  0.60147310  0.65056513     0.36600
C1992       C  0.68489569  0.62636393  0.64515913    -0.05500
C1993       C  0.66599632  0.62830268  0.62559574    -0.32500
C1994       C  0.65977514  0.60696845  0.60991247     0.36500
H1995       H  0.69908019  0.56216762  0.63783458     0.16900
O1996       O  0.71223005  0.59797515  0.67043140    -0.60000
H1997       H  0.65646173  0.64636818  0.62151228     0.16900
O1998       O  0.64203305  0.61011059  0.59043036    -0.60100
H1999       H  0.65216687  0.61692938  0.57582440     0.43900
H2000       H  0.70150906  0.59177033  0.68487790     0.43900
C2001       C  0.69286857  0.72527955  0.66262416    -0.05200
C2002       C  0.71271100  0.74415450  0.66306096    -0.32600
C2003       C  0.70704826  0.77051412  0.66509676     0.36600
C2004       C  0.68111441  0.77853577  0.66736671    -0.05500
C2005       C  0.66116434  0.75971627  0.66688321    -0.32500
C2006       C  0.66686947  0.73326782  0.66460314     0.36500
H2007       H  0.73282724  0.73851352  0.66213873     0.16900
O2008       O  0.72708293  0.78822524  0.66458466    -0.60000
H2009       H  0.64110228  0.76550199  0.66884786     0.16900
O2010       O  0.64710331  0.71534801  0.66628830    -0.60100
H2011       H  0.63882845  0.71498340  0.64908928     0.43900
H2012       H  0.72804388  0.79404845  0.64654594     0.43900
C2013       C  0.78799255  0.68238509  0.83528617    -0.05200
C2014       C  0.76910016  0.66298769  0.83912276    -0.32600
C2015       C  0.74288164  0.66925817  0.84196618     0.36600
C2016       C  0.73508635  0.69538543  0.84081806    -0.05500
C2017       C  0.75410792  0.71465789  0.83688998    -0.32500
C2018       C  0.78029880  0.70847778  0.83470528     0.36500
H2019       H  0.77455477  0.64275284  0.83923755     0.16900
O2020       O  0.72490645  0.64954294  0.84354270    -0.60000
H2021       H  0.74878146  0.73469162  0.83471191     0.16900
O2022       O  0.79810787  0.72822231  0.83207987    -0.60100
H2023       H  0.80373646  0.73266480  0.84975735     0.43900
H2024       H  0.72671618  0.64263531  0.86115400     0.43900
C2025       C  0.86607361  0.63284280  0.86177876    -0.05200
C2026       C  0.87082003  0.60732613  0.85318751    -0.32600
C2027       C  0.87290135  0.58656480  0.87037875     0.36600
C2028       C  0.87033549  0.59086409  0.89680779    -0.05500
C2029       C  0.86703829  0.61639347  0.90552099    -0.32500
C2030       C  0.86490317  0.63711876  0.88845826     0.36500
H2031       H  0.87127526  0.60264214  0.83309919     0.16900
O2032       O  0.87689728  0.56209635  0.86098364    -0.60000
H2033       H  0.86520685  0.62037319  0.92577105     0.16900
O2034       O  0.85938186  0.66120164  0.89805419    -0.60100
H2035       H  0.87614746  0.66805903  0.90483964     0.43900
H2036       H  0.85937579  0.55540395  0.85622991     0.43900
C2037       C  0.86424179  0.72755560  0.83057587    -0.05200
C2038       C  0.86882501  0.74151213  0.85323572    -0.32600
C2039       C  0.87400114  0.76823147  0.85256136     0.36600
C2040       C  0.87516930  0.78136243  0.82887105    -0.05500
C2041       C  0.87097242  0.76735258  0.80633241    -0.32500
C2042       C  0.86557017  0.74077697  0.80694552     0.36500
H2043       H  0.86746651  0.73186940  0.87157335     0.16900
O2044       O  0.87704671  0.78139069  0.87522218    -0.60000
H2045       H  0.87216824  0.77693279  0.78801900     0.16900
O2046       O  0.86288973  0.72774933  0.78419079    -0.60100
H2047       H  0.84699936  0.73472445  0.77591550     0.43900
H2048       H  0.85988814  0.78923022  0.87857180     0.43900
C2049       C  0.86646741  0.76469069  0.66614826    -0.05200
C2050       C  0.84048535  0.77254959  0.66452376    -0.32600
C2051       C  0.83416749  0.79868440  0.66103921     0.36600
C2052       C  0.85400171  0.81758027  0.65912669    -0.05500
C2053       C  0.87999100  0.80989368  0.66115371    -0.32500
C2054       C  0.88629096  0.78380533  0.66503716     0.36500
H2055       H  0.82490427  0.75843817  0.66563671     0.16900
O2056       O  0.80853732  0.80554158  0.65870996    -0.60000
H2057       H  0.89541497  0.82433577  0.66099153     0.16900
O2058       O  0.91186354  0.77736229  0.66856809    -0.60100
H2059       H  0.91463547  0.77745006  0.68736593     0.43900
H2060       H  0.80080394  0.80242435  0.67575030     0.43900
C2061       C  0.86874894  0.68983081  0.72327671    -0.05200
C2062       C  0.84250681  0.68668281  0.73015515    -0.32600
C2063       C  0.83560945  0.67774146  0.75436901     0.36600
C2064       C  0.85496920  0.67134041  0.77226572    -0.05500
C2065       C  0.88119295  0.67360211  0.76538016    -0.32500
C2066       C  0.88817820  0.68310494  0.74129146     0.36500
H2067       H  0.82700764  0.69116534  0.71686312     0.16900
O2068       O  0.80983138  0.67617772  0.76068202    -0.60000
H2069       H  0.89634552  0.66963043  0.77932232     0.16900
O2070       O  0.91401099  0.68682288  0.73613809    -0.60100
H2071       H  0.91760005  0.70531017  0.74020020     0.43900
H2072       H  0.80439346  0.65821046  0.75628446     0.43900
C2073       C  0.96025112  0.67720349  0.60689642    -0.05200
C2074       C  0.96356576  0.69157744  0.62947695    -0.32600
C2075       C  0.94244504  0.69648014  0.64551758     0.36600
C2076       C  0.91720157  0.68706515  0.63914924    -0.05500
C2077       C  0.91448245  0.67109213  0.61744365    -0.32500
C2078       C  0.93551219  0.66626748  0.60143568     0.36500
H2079       H  0.98240574  0.69983603  0.63434484     0.16900
O2080       O  0.94651393  0.71118958  0.66712073    -0.60000
H2081       H  0.89601882  0.66279862  0.61184017     0.16900
O2082       O  0.93133098  0.65122484  0.58008600    -0.60100
H2083       H  0.92413019  0.66314658  0.56699926     0.43900
H2084       H  0.94890322  0.72924311  0.66099907     0.43900
C2085       C  0.81926443  0.68841300  0.65897406    -0.05200
C2086       C  0.81180833  0.66565359  0.67175678    -0.32600
C2087       C  0.78544324  0.65945677  0.67487543     0.36600
C2088       C  0.76629368  0.67621281  0.66524058    -0.05500
C2089       C  0.77384048  0.69811149  0.65120765    -0.32500
C2090       C  0.80013279  0.70423838  0.64799263     0.36500
H2091       H  0.82644286  0.65327547  0.68022373     0.16900
O2092       O  0.77857316  0.63728373  0.68769050    -0.60000
H2093       H  0.75931676  0.71027937  0.64239701     0.16900
O2094       O  0.80690787  0.72589161  0.63433344    -0.60100
H2095       H  0.81272063  0.71933680  0.61751765     0.43900
H2096       H  0.77665736  0.64266700  0.70578292     0.43900
C2097       C  0.08756287  0.37742056  0.89022902    -0.05200
C2098       C  0.08275890  0.36257295  0.86824124    -0.32600
C2099       C  0.10267204  0.35748399  0.85095973     0.36600
C2100       C  0.12828198  0.36688681  0.85563564    -0.05500
C2101       C  0.13226669  0.38413036  0.87619144    -0.32500
C2102       C  0.11223341  0.38934316  0.89340336     0.36500
H2103       H  0.06387534  0.35360281  0.86510408     0.16900
O2104       O  0.09743139  0.34124452  0.83070915    -0.60000
H2105       H  0.15102474  0.39287860  0.87995375     0.16900
O2106       O  0.11715238  0.40586237  0.91351266    -0.60100
H2107       H  0.12689226  0.39545467  0.92626914     0.43900
H2108       H  0.08977089  0.35247043  0.81729241     0.43900
C2109       C  0.19273655  0.36957193  0.72209832    -0.05200
C2110       C  0.18860706  0.38891275  0.74052043    -0.32600
C2111       C  0.17929774  0.38251224  0.76486679     0.36600
C2112       C  0.17330625  0.35650468  0.77091976    -0.05500
C2113       C  0.17707243  0.33729291  0.75259737    -0.32500
C2114       C  0.18673445  0.34350850  0.72847349     0.36500
H2115       H  0.19327085  0.40896416  0.73626564     0.16900
O2116       O  0.17709971  0.40167225  0.78290919    -0.60000
H2117       H  0.17282649  0.31720657  0.75713216     0.16900
O2118       O  0.18917494  0.32389705  0.71105737    -0.60100
H2119       H  0.20378430  0.31316663  0.71737383     0.43900
H2120       H  0.19390056  0.40174740  0.79235026     0.43900
C2121       C  0.19059357  0.41965175  0.63806881    -0.05200
C2122       C  0.17646218  0.41629404  0.61510471    -0.32600
C2123       C  0.17161780  0.43709883  0.59870335     0.36600
C2124       C  0.18080566  0.46227765  0.60484225    -0.05500
C2125       C  0.19323916  0.46619814  0.62853106    -0.32500
C2126       C  0.19814773  0.44526514  0.64502832     0.36500
H2127       H  0.16969556  0.39753570  0.60878529     0.16900
O2128       O  0.15881187  0.43215790  0.57605307    -0.60000
H2129       H  0.20008711  0.48538291  0.63393241     0.16900
O2130       O  0.21115898  0.44990778  0.66764041    -0.60100
H2131       H  0.22945927  0.45340778  0.66285627     0.43900
H2132       H  0.14009878  0.43387570  0.57998949     0.43900
C2133       C  0.18622143  0.13778183  0.86680709    -0.05200
C2134       C  0.18260995  0.11251712  0.85681718    -0.32600
C2135       C  0.18034936  0.09079465  0.87296979     0.36600
C2136       C  0.18175239  0.09384037  0.89976103    -0.05500
C2137       C  0.18487479  0.11896626  0.90973088    -0.32500
C2138       C  0.18728812  0.14057555  0.89376581     0.36500
H2139       H  0.18295910  0.10910326  0.83643449     0.16900
O2140       O  0.17732544  0.06666222  0.86224506    -0.60000
H2141       H  0.18613468  0.12200199  0.93021476     0.16900
O2142       O  0.19267073  0.16418036  0.90484501    -0.60100
H2143       H  0.17602507  0.16992664  0.91228268     0.43900
H2144       H  0.19522141  0.06055566  0.85906572     0.43900
C2145       C  0.17484933  0.28622782  0.83354959    -0.05200
C2146       C  0.18905723  0.27870311  0.85533759    -0.32600
C2147       C  0.19489946  0.25255462  0.85950841     0.36600
C2148       C  0.18581689  0.23367345  0.84216396    -0.05500
C2149       C  0.17005182  0.24109952  0.82145461    -0.32500
C2150       C  0.16518844  0.26728259  0.81663807     0.36500
H2151       H  0.19614125  0.29322927  0.86874920     0.16900
O2152       O  0.21031247  0.24576467  0.87991015    -0.60000
H2153       H  0.16229052  0.22658334  0.80843356     0.16900
O2154       O  0.15095620  0.27418876  0.79546183    -0.60100
H2155       H  0.16361087  0.27472718  0.78127613     0.43900
H2156       H  0.19805465  0.24142506  0.89380475     0.43900
C2157       C  0.18495648  0.26847371  0.66503685    -0.05200
C2158       C  0.16514556  0.28674909  0.66138800    -0.32600
C2159       C  0.17098075  0.31291945  0.65709044     0.36600
C2160       C  0.19705218  0.32138117  0.65673499    -0.05500
C2161       C  0.21689118  0.30308067  0.65954485    -0.32500
C2162       C  0.21106736  0.27681680  0.66363345     0.36500
H2163       H  0.14493537  0.28085534  0.66255128     0.16900
O2164       O  0.15107388  0.33037624  0.65582078    -0.60000
H2165       H  0.23705463  0.30932594  0.65930962     0.16900
O2166       O  0.23101232  0.25942169  0.66526924    -0.60100
H2167       H  0.23956049  0.26282084  0.68204249     0.43900
H2168       H  0.14422322  0.32907052  0.63807373     0.43900
C2169       C  0.17760649  0.19962059  0.72881752    -0.05200
C2170       C  0.17680773  0.17350458  0.73654735    -0.32600
C2171       C  0.18499286  0.16607758  0.76120498     0.36600
C2172       C  0.19371033  0.18498367  0.77906358    -0.05500
C2173       C  0.19484577  0.21102465  0.77071817    -0.32500
C2174       C  0.18692452  0.21833697  0.74614665     0.36500
H2175       H  0.17075142  0.15860981  0.72306899     0.16900
O2176       O  0.18511682  0.14020101  0.76710981    -0.60000
H2177       H  0.20130495  0.22648000  0.78315415     0.16900
O2178       O  0.18740239  0.24411450  0.73955815    -0.60100
H2179       H  0.20601819  0.24929126  0.73950160     0.43900
H2180       H  0.20345022  0.13480043  0.76528401     0.43900
C2181       C  0.13260735  0.19023452  0.64201993    -0.05200
C2182       C  0.13613823  0.17493022  0.62003284    -0.32600
C2183       C  0.11599911  0.17121176  0.60218434     0.36600
C2184       C  0.09143253  0.18232575  0.60619694    -0.05500
C2185       C  0.08716065  0.19590995  0.62894853    -0.32500
C2186       C  0.10740902  0.20001542  0.64666037     0.36500
H2187       H  0.15472999  0.16681050  0.61545743     0.16900
O2188       O  0.12066128  0.15669648  0.58072146    -0.60000
H2189       H  0.06840997  0.20452013  0.63247111     0.16900
O2190       O  0.10292919  0.21554565  0.66745559    -0.60100
H2191       H  0.09427386  0.20413469  0.68008617     0.43900
H2192       H  0.12982227  0.16858082  0.56885779     0.43900
C2193       C  0.45668938  0.18013129  0.90141002    -0.05200
C2194       C  0.46132775  0.19071627  0.87724059    -0.32600
C2195       C  0.44083010  0.19531262  0.86016707     0.36600
C2196       C  0.41490077  0.18907491  0.86691796    -0.05500
C2197       C  0.41056150  0.17711347  0.89067177    -0.32500
C2198       C  0.43107224  0.17284498  0.90785500     0.36500
H2199       H  0.48082575  0.19644339  0.87185117     0.16900
O2200       O  0.44614450  0.20774104  0.83759589    -0.60000
H2201       H  0.39126645  0.17214644  0.89694821     0.16900
O2202       O  0.42570346  0.16170521  0.93104496    -0.60100
H2203       H  0.42013276  0.17620370  0.94214583     0.43900
H2204       H  0.45362611  0.19429637  0.82634213     0.43900
C2205       C  0.26380071  0.18775140  0.83972835    -0.05200
C2206       C  0.27648649  0.19203271  0.86328735    -0.32600
C2207       C  0.30330335  0.19679647  0.86433261     0.36600
C2208       C  0.31778301  0.19666620  0.84165957    -0.05500
C2209       C  0.30498354  0.19218779  0.81816481    -0.32500
C2210       C  0.27819453  0.18788455  0.81708597     0.36500
H2211       H  0.26545661  0.19212149  0.88083389     0.16900
O2212       O  0.31498491  0.20223163  0.88742982    -0.60000
H2213       H  0.31580671  0.19187222  0.80050537     0.16900
O2214       O  0.26632600  0.18346125  0.79385762    -0.60100
H2215       H  0.26607754  0.16434556  0.79175032     0.43900
H2216       H  0.31543224  0.22143113  0.88858532     0.43900
C2217       C  0.28252877  0.17954967  0.67255857    -0.05200
C2218       C  0.27070323  0.18288055  0.64846690    -0.32600
C2219       C  0.24439881  0.18915749  0.64639619     0.36600
C2220       C  0.22959166  0.19196296  0.66862815    -0.05500
C2221       C  0.24139700  0.18817150  0.69269626    -0.32500
C2222       C  0.26777025  0.18226632  0.69476431     0.36500
H2223       H  0.28210993  0.18129233  0.63123044     0.16900
O2224       O  0.23381858  0.19420253  0.62277123    -0.60000
H2225       H  0.23020137  0.19000254  0.71002068     0.16900
O2226       O  0.27877139  0.17841599  0.71844764    -0.60100
H2227       H  0.28156712  0.19601763  0.72569340     0.43900
H2228       H  0.23006413  0.17695263  0.61511697     0.43900
C2229       C  0.37117661  0.19438278  0.77990227    -0.05200
C2230       C  0.36879792  0.21356162  0.76130898    -0.32600
C2231       C  0.36249076  0.20712567  0.73603409     0.36600
C2232       C  0.35749040  0.18100694  0.72895649    -0.05500
C2233       C  0.36011165  0.16168695  0.74768122    -0.32500
C2234       C  0.36687706  0.16821360  0.77301729     0.36500
H2235       H  0.37200110  0.23374130  0.76638065     0.16900
O2236       O  0.36152635  0.22670575  0.71843690    -0.60000
H2237       H  0.35613742  0.14159385  0.74285888     0.16900
O2238       O  0.36747042  0.14913209  0.79124474    -0.60100
H2239       H  0.38462798  0.14079549  0.78936854     0.43900
H2240       H  0.37991562  0.23144694  0.71517404     0.43900
C2241       C  0.36739459  0.09148741  0.60694653    -0.05200
C2242       C  0.35604987  0.11451704  0.59841945    -0.32600
C2243       C  0.35211815  0.13524775  0.61503075     0.36600
C2244       C  0.35967442  0.13360624  0.64111819    -0.05500
C2245       C  0.37224967  0.11090077  0.64942157    -0.32500
C2246       C  0.37600355  0.08995101  0.63258736     0.36500
H2247       H  0.34933349  0.11630487  0.57880060     0.16900
O2248       O  0.33905568  0.15646752  0.60592164    -0.60000
H2249       H  0.37831898  0.10864004  0.66909844     0.16900
O2250       O  0.38829002  0.06819511  0.64138529    -0.60100
H2251       H  0.37440102  0.05739393  0.64911049     0.43900
H2252       H  0.35180984  0.16611372  0.59538615     0.43900
C2253       C  0.27985487  0.36892588  0.82970226    -0.05200
C2254       C  0.27061848  0.34327927  0.82832622    -0.32600
C2255       C  0.24416327  0.33737331  0.83023342     0.36600
C2256       C  0.22587407  0.35735048  0.83272490    -0.05500
C2257       C  0.23476825  0.38312090  0.83325508    -0.32500
C2258       C  0.26140088  0.38906650  0.83167713     0.36500
H2259       H  0.28385005  0.32738702  0.82636353     0.16900
O2260       O  0.23651793  0.31183218  0.83002762    -0.60000
H2261       H  0.22098043  0.39882680  0.83418368     0.16900
O2262       O  0.26892466  0.41463140  0.83045229    -0.60100
H2263       H  0.26432605  0.42227819  0.84722252     0.43900
H2264       H  0.23981232  0.30553802  0.84766243     0.43900
C2265       C  0.35761773  0.41589774  0.86469713    -0.05200
C2266       C  0.36860837  0.43912121  0.85520430    -0.32600
C2267       C  0.37235184  0.46089334  0.87115425     0.36600
C2268       C  0.36487613  0.45988159  0.89702208    -0.05500
C2269       C  0.35459606  0.43660551  0.90654567    -0.32500
C2270       C  0.35069804  0.41507755  0.89082046     0.36500
H2271       H  0.37339955  0.44111002  0.83524825     0.16900
O2272       O  0.38266950  0.48318571  0.86102333    -0.60000
H2273       H  0.34889715  0.43506405  0.92638088     0.16900
O2274       O  0.33935203  0.39336193  0.90118364    -0.60100
H2275       H  0.32047923  0.39701690  0.90159811     0.43900
H2276       H  0.40175545  0.48134334  0.86287102     0.43900
C2277       C  0.35362085  0.31943819  0.84646443    -0.05200
C2278       C  0.37923269  0.31307755  0.84023071    -0.32600
C2279       C  0.38624575  0.28720455  0.83661487     0.36600
C2280       C  0.36757056  0.26737276  0.83947638    -0.05500
C2281       C  0.34251377  0.27362965  0.84760161    -0.32500
C2282       C  0.33543615  0.29958644  0.85121541     0.36500
H2283       H  0.39333961  0.32829540  0.83645746     0.16900
O2284       O  0.41105784  0.28156337  0.82923729    -0.60000
H2285       H  0.32847174  0.25833876  0.85132112     0.16900
O2286       O  0.31132433  0.30556143  0.86052800    -0.60100
H2287       H  0.29860332  0.29397679  0.85170650     0.43900
H2288       H  0.41043500  0.28135401  0.81027464     0.43900
C2289       C  0.36654856  0.28285456  0.66834674    -0.05200
C2290       C  0.38601385  0.26452518  0.66359756    -0.32600
C2291       C  0.37997712  0.23820807  0.66068544     0.36600
C2292       C  0.35403726  0.22961108  0.66265803    -0.05500
C2293       C  0.33445399  0.24790137  0.66661951    -0.32500
C2294       C  0.34046853  0.27429963  0.66950918     0.36500
H2295       H  0.40622576  0.27046345  0.66282768     0.16900
O2296       O  0.39980398  0.22097056  0.65740256    -0.60000
H2297       H  0.31435763  0.24162968  0.66797290     0.16900
O2298       O  0.32059469  0.29157277  0.67236336    -0.60100
H2299       H  0.31359899  0.28832893  0.68969458     0.43900
H2300       H  0.40537562  0.21602554  0.67492451     0.43900
C2301       C  0.35934033  0.36484828  0.77940773    -0.05200
C2302       C  0.36743738  0.38434178  0.76233932    -0.32600
C2303       C  0.37659759  0.37817630  0.73789354     0.36600
C2304       C  0.37793099  0.35208699  0.72999542    -0.05500
C2305       C  0.37061343  0.33261462  0.74705407    -0.32500
C2306       C  0.36176168  0.33860467  0.77160676     0.36500
H2307       H  0.36570954  0.40458373  0.76750682     0.16900
O2308       O  0.38250880  0.39789627  0.72130829    -0.60000
H2309       H  0.37120440  0.31248408  0.74108776     0.16900
O2310       O  0.35511381  0.31851662  0.78746185    -0.60100
H2311       H  0.37048604  0.30708827  0.78833397     0.43900
H2312       H  0.36600459  0.40171022  0.71218072     0.43900
C2313       C  0.45720480  0.36787040  0.60398615    -0.05200
C2314       C  0.43205646  0.36097711  0.59574179    -0.32600
C2315       C  0.41199854  0.35712716  0.61320667     0.36600
C2316       C  0.41653533  0.36048000  0.63977485    -0.05500
C2317       C  0.44145415  0.36895494  0.64781247    -0.32500
C2318       C  0.46153529  0.37277881  0.63020828     0.36500
H2319       H  0.42798243  0.35761975  0.57563414     0.16900
O2320       O  0.38812362  0.34909185  0.60412630    -0.60000
H2321       H  0.44620079  0.37161366  0.66776895     0.16900
O2322       O  0.48553612  0.38055336  0.63905974    -0.60100
H2323       H  0.48493984  0.39976786  0.63937266     0.43900
H2324       H  0.39009399  0.33047627  0.59983493     0.43900
C2325       C  0.32233155  0.35969289  0.66942590    -0.05200
C2326       C  0.30956641  0.36415610  0.64605029    -0.32600
C2327       C  0.28312805  0.37012712  0.64533641     0.36600
C2328       C  0.26903453  0.37181178  0.66826752    -0.05500
C2329       C  0.28174762  0.36768904  0.69160164    -0.32500
C2330       C  0.30826116  0.36210787  0.69238279     0.36500
H2331       H  0.31990544  0.36220820  0.62821189     0.16900
O2332       O  0.27108177  0.37342920  0.62207143    -0.60000
H2333       H  0.27115176  0.36917177  0.70934961     0.16900
O2334       O  0.32019297  0.35938438  0.71574626    -0.60100
H2335       H  0.32214991  0.37725441  0.72257354     0.43900
H2336       H  0.26326860  0.35628731  0.61781863     0.43900
loop_ 
_geom_bond_atom_site_label_1 
_geom_bond_atom_site_label_2 
_geom_bond_distance 
_geom_bond_site_symmetry_2 
_ccdc_geom_bond_type 
C1            C2   1.545       .  S
C1            C7   1.530       .  S
C1            C5   1.549       .  S
C1         C1148   1.532       .  S
C2            H9   1.086       .  S
C2            C3   1.371       .  D
C3            C4   1.533       .  S
C3         C1157   1.485       .  S
C4            C8   1.538       .  S
C4            C6   1.535       .  S
C4           H10   1.107       .  S
C5           H11   1.082       .  S
C5            C6   1.369       .  D
C6         C1136   1.484       .  S
C7           H12   1.086       .  S
C7            C8   1.358       .  D
C8         C1121   1.490       .  S
C13          C14   1.542       .  S
C13          C19   1.529       .  S
C13          C17   1.548       .  S
C13        C1097   1.532       .  S
C14          H21   1.086       .  S
C14          C15   1.363       .  D
C15          C16   1.536       .  S
C15        C1109   1.474       .  S
C16          C20   1.546       .  S
C16          C18   1.546       .  S
C16          H22   1.105       .  S
C17          H23   1.083       .  S
C17          C18   1.376       .  D
C18        C1133   1.505       .  S
C19          H24   1.083       .  S
C19          C20   1.359       .  D
C20        C1085   1.501       .  S
C25          C26   1.545       .  S
C25          C31   1.530       .  S
C25          C29   1.555       .  S
C25        C1076   1.532       .  S
C26          H33   1.085       .  S
C26          C27   1.367       .  D
C27          C28   1.532       .  S
C27        C1124   1.482       .  S
C28          C32   1.530       .  S
C28          C30   1.538       .  S
C28          H34   1.110       .  S
C29          H35   1.083       .  S
C29          C30   1.377       .  D
C30        C1064   1.495       .  S
C31          H36   1.087       .  S
C31          C32   1.352       .  D
C32        C1049   1.472       .  S
C37          C38   1.557       .  S
C37          C43   1.531       .  S
C37          C41   1.538       .  S
C37        C1028   1.526       .  S
C38          H45   1.082       .  S
C38          C39   1.373       .  D
C39          C40   1.528       .  S
C39        C1040   1.479       .  S
C40          C44   1.534       .  S
C40          C42   1.537       .  S
C40          H46   1.111       .  S
C41          H47   1.086       .  S
C41          C42   1.364       .  D
C42        C1061   1.480       .  S
C43          H48   1.087       .  S
C43          C44   1.354       .  D
C44        C1112   1.476       .  S
C49          C50   1.555       .  S
C49          C55   1.530       .  S
C49          C53   1.543       .  S
C49        C1013   1.532       .  S
C50          H57   1.082       .  S
C50          C51   1.370       .  D
C51          C52   1.527       .  S
C51        C1052   1.477       .  S
C52          C56   1.539       .  S
C52          C54   1.538       .  S
C52          H58   1.107       .  S
C53          H59   1.086       .  S
C53          C54   1.369       .  D
C54        C1001   1.489       .  S
C55          H60   1.087       .  S
C55          C56   1.357       .  D
C56         C989   1.489       .  S
C61          C62   1.548       .  S
C61          C67   1.528       .  S
C61          C65   1.557       .  S
C61         C965   1.536       .  S
C62          H69   1.085       .  S
C62          C63   1.366       .  D
C63          C64   1.531       .  S
C63         C980   1.474       .  S
C64          C68   1.530       .  S
C64          C66   1.543       .  S
C64          H70   1.107       .  S
C65          H71   1.081       .  S
C65          C66   1.383       .  D
C66        C1004   1.513       .  S
C67          H72   1.087       .  S
C67          C68   1.351       .  D
C68        C1037   1.473       .  S
C73          C74   1.558       .  S
C73          C79   1.531       .  S
C73          C77   1.544       .  S
C73         C953   1.537       .  S
C74          H81   1.080       .  S
C74          C75   1.369       .  D
C75          C76   1.529       .  S
C75         C992   1.482       .  S
C76          C80   1.533       .  S
C76          C78   1.538       .  S
C76          H82   1.110       .  S
C77          H83   1.086       .  S
C77          C78   1.372       .  D
C78         C941   1.495       .  S
C79          H84   1.087       .  S
C79          C80   1.356       .  D
C80        C1160   1.476       .  S
C85          C86   1.559       .  S
C85          C91   1.534       .  S
C85          C89   1.537       .  S
C85         C932   1.531       .  S
C86          H93   1.082       .  S
C86          C87   1.377       .  D
C87          C88   1.533       .  S
C87        C1088   1.488       .  S
C88          C92   1.533       .  S
C88          C90   1.534       .  S
C88          H94   1.110       .  S
C89          H95   1.086       .  S
C89          C90   1.364       .  D
C90         C944   1.478       .  S
C91          H96   1.087       .  S
C91          C92   1.352       .  D
C92         C977   1.473       .  S
C97          C98   1.538       .  S
C97         C103   1.532       .  S
C97         C101   1.555       .  S
C97         C908   1.535       .  S
C98         H105   1.085       .  S
C98          C99   1.372       .  D
C99         C100   1.544       .  S
C99         C893   1.495       .  S
C100        C104   1.540       .  S
C100        C102   1.530       .  S
C100        H106   1.109       .  S
C101        H107   1.081       .  S
C101        C102   1.366       .  D
C102        C917   1.476       .  S
C103        H108   1.086       .  S
C103        C104   1.360       .  D
C104        C881   1.492       .  S
C109        C110   1.546       .  S
C109        C115   1.531       .  S
C109        C113   1.552       .  S
C109        C857   1.532       .  S
C110        H117   1.083       .  S
C110        C111   1.365       .  D
C111        C112   1.532       .  S
C111        C896   1.478       .  S
C112        C116   1.532       .  S
C112        C114   1.533       .  S
C112        H118   1.107       .  S
C113        H119   1.085       .  S
C113        C114   1.375       .  D
C114        C869   1.488       .  S
C115        H120   1.087       .  S
C115        C116   1.356       .  D
C116        C845   1.482       .  S
C121        C122   1.539       .  S
C121        C127   1.537       .  S
C121        C125   1.558       .  S
C121        C824   1.536       .  S
C122        H129   1.086       .  S
C122        C123   1.368       .  D
C123        C124   1.537       .  S
C123        C809   1.484       .  S
C124        C128   1.535       .  S
C124        C126   1.529       .  S
C124        H130   1.111       .  S
C125        H131   1.081       .  S
C125        C126   1.374       .  D
C126        C833   1.486       .  S
C127        H132   1.087       .  S
C127        C128   1.355       .  D
C128        C920   1.478       .  S
C133        C134   1.542       .  S
C133        C139   1.525       .  S
C133        C137   1.556       .  S
C133        C797   1.532       .  S
C134        H141   1.085       .  S
C134        C135   1.375       .  D
C135        C136   1.545       .  S
C135        C812   1.504       .  S
C136        C140   1.537       .  S
C136        C138   1.532       .  S
C136        H142   1.107       .  S
C137        H143   1.080       .  S
C137        C138   1.372       .  D
C138        C848   1.489       .  S
C139        H144   1.087       .  S
C139        C140   1.348       .  D
C140        C785   1.471       .  S
C145        C146   1.546       .  S
C145        C151   1.533       .  S
C145        C149   1.550       .  S
C145        C761   1.532       .  S
C146        H153   1.081       .  S
C146        C147   1.366       .  D
C147        C148   1.537       .  S
C147        C749   1.482       .  S
C148        C152   1.538       .  S
C148        C150   1.533       .  S
C148        H154   1.109       .  S
C149        H155   1.086       .  S
C149        C150   1.372       .  D
C150        C773   1.490       .  S
C151        H156   1.087       .  S
C151        C152   1.358       .  D
C152        C836   1.485       .  S
C157        C158   1.549       .  S
C157        C163   1.531       .  S
C157        C161   1.540       .  S
C157        C737   1.526       .  S
C158        H165   1.081       .  S
C158        C159   1.381       .  D
C159        C160   1.545       .  S
C159        C752   1.506       .  S
C160        C164   1.532       .  S
C160        C162   1.529       .  S
C160        H166   1.106       .  S
C161        H167   1.086       .  S
C161        C162   1.359       .  D
C162        C788   1.463       .  S
C163        H168   1.087       .  S
C163        C164   1.353       .  D
C164        C725   1.479       .  S
C169        C170   1.540       .  S
C169        C175   1.534       .  S
C169        C173   1.561       .  S
C169        C716   1.536       .  S
C170        H177   1.086       .  S
C170        C171   1.367       .  D
C171        C172   1.537       .  S
C171        C701   1.488       .  S
C172        C176   1.534       .  S
C172        C174   1.528       .  S
C172        H178   1.110       .  S
C173        H179   1.082       .  S
C173        C174   1.375       .  D
C174        C884   1.483       .  S
C175        H180   1.087       .  S
C175        C176   1.357       .  D
C176        C776   1.482       .  S
C181        C182   1.538       .  S
C181        C187   1.530       .  S
C181        C185   1.555       .  S
C181        C689   1.529       .  S
C182        H189   1.086       .  S
C182        C183   1.365       .  D
C183        C184   1.538       .  S
C183        C704   1.479       .  S
C184        C188   1.539       .  S
C184        C186   1.534       .  S
C184        H190   1.108       .  S
C185        H191   1.081       .  S
C185        C186   1.374       .  D
C186        C728   1.491       .  S
C187        H192   1.086       .  S
C187        C188   1.355       .  D
C188        C872   1.484       .  S
O193        C196   1.261       .  A
O193       Cd198   2.422       .  S
C194        O203   1.266       .  A
C194        O199   1.268       .  A
C194        C653   1.489       .  S
O195        C201   1.264       .  A
O195       Cd198   2.454       .  S
C196        O204   1.270       .  A
C196        C860   1.486       .  S
C197        O202   1.268       .  A
C197        O200   1.265       .  A
C197        C665   1.490       .  S
Cd198       O205   2.446       .  S
Cd198       O204   2.515       .  S
Cd198       O203   2.450       .  S
Cd198       O199   2.495       .  S
Cd198       O202   2.499       .  S
Cd198       O200   2.461       .  S
C201        O205   1.265       .  A
C201        C677   1.475       .  S
O206        C209   1.267       .  A
O206       Cd211   2.487       .  S
C207        O216   1.258       .  A
C207        O212   1.270   1_655  A
C207        C905   1.488       .  S
O208        C214   1.264       .  A
O208       Cd211   2.471       .  S
C209        O217   1.264       .  A
C209        C632   1.488       .  S
C210        O215   1.266       .  A
C210        O213   1.266   1_655  A
C210        C680   1.473       .  S
Cd211       O218   2.477       .  S
Cd211       O217   2.465       .  S
Cd211       O216   2.421   1_455  S
Cd211       O212   2.531       .  S
Cd211       O215   2.433   1_455  S
Cd211       O213   2.460       .  S
C214        O218   1.267       .  A
C214        C644   1.487       .  S
O219        C222   1.271   1_545  A
O219       Cd224   2.526       .  S
C220        O229   1.264       .  A
C220        O225   1.269       .  A
C220        C596   1.487       .  S
O221        C227   1.268       .  A
O221       Cd224   2.429   1_565  S
C222        O230   1.260       .  A
C222        C713   1.486       .  S
C223        O228   1.264       .  A
C223        O226   1.267       .  A
C223        C605   1.488       .  S
Cd224       O231   2.440       .  S
Cd224       O230   2.432   1_545  S
Cd224       O229   2.433       .  S
Cd224       O225   2.500       .  S
Cd224       O228   2.469       .  S
Cd224       O226   2.484       .  S
C227        O231   1.266   1_565  A
C227        C620   1.473       .  S
O232        C235   1.265       .  A
O232       Cd237   2.469       .  S
C233        O242   1.260       .  A
C233        O238   1.269   1_655  A
C233        C692   1.482       .  S
O234        C240   1.265       .  A
O234       Cd237   2.462       .  S
C235        O243   1.265       .  A
C235        C581   1.484       .  S
C236        O241   1.266       .  A
C236        O239   1.265   1_655  A
C236        C617   1.473       .  S
Cd237       O244   2.478       .  S
Cd237       O243   2.451       .  S
Cd237       O242   2.427   1_455  S
Cd237       O238   2.491       .  S
Cd237       O241   2.430   1_455  S
Cd237       O239   2.460       .  S
C240        O244   1.266       .  A
C240        C641   1.486       .  S
O245        C248   1.271       .  A
O245       Cd250   2.521       .  S
C246        O255   1.264       .  A
C246        O251   1.268       .  A
C246        C545   1.489       .  S
O247        C253   1.267       .  A
O247       Cd250   2.455       .  S
C248        O256   1.260       .  A
C248        C800   1.483       .  S
C249        O254   1.264       .  A
C249        O252   1.267       .  A
C249        C557   1.490       .  S
Cd250       O257   2.445       .  S
Cd250       O256   2.404       .  S
Cd250       O255   2.443       .  S
Cd250       O251   2.512       .  S
Cd250       O254   2.476       .  S
Cd250       O252   2.485       .  S
C253        O257   1.266       .  A
C253        C572   1.477       .  S
O258        C261   1.267       .  A
O258       Cd263   2.493       .  S
C259        O268   1.262       .  A
C259        O264   1.269       .  A
C259        C821   1.485       .  S
O260        C266   1.265       .  A
O260       Cd263   2.478       .  S
C261        O269   1.262       .  A
C261        C533   1.484       .  S
C262        O267   1.266       .  A
C262        O265   1.265       .  A
C262        C569   1.472       .  S
Cd263       O270   2.484       .  S
Cd263       O269   2.452       .  S
Cd263       O268   2.465       .  S
Cd263       O264   2.492       .  S
Cd263       O267   2.446       .  S
Cd263       O265   2.450       .  S
C266        O270   1.266       .  A
C266        C668   1.487       .  S
O271        C274   1.270       .  A
O271       Cd276   2.493       .  S
C272        O281   1.264       .  A
C272        O277   1.267       .  A
C272        C509   1.490       .  S
O273        C279   1.267       .  A
O273       Cd276   2.466       .  S
C274        O282   1.264       .  A
C274        C764   1.485       .  S
C275        O280   1.265       .  A
C275        O278   1.267       .  A
C275        C560   1.488       .  S
Cd276       O283   2.442       .  S
Cd276       O282   2.425       .  S
Cd276       O281   2.462       .  S
Cd276       O277   2.510       .  S
Cd276       O280   2.462       .  S
Cd276       O278   2.497       .  S
C279        O283   1.264       .  A
C279        C524   1.477       .  S
O284        C287   1.266       .  A
O284       Cd289   2.503       .  S
C285        O294   1.265       .  A
C285        O290   1.269   1_565  A
C285        C740   1.480       .  S
O286        C292   1.265       .  A
O286       Cd289   2.453       .  S
C287        O295   1.263       .  A
C287        C500   1.483       .  S
C288        O293   1.265   1_565  A
C288        O291   1.262       .  A
C288        C521   1.479       .  S
Cd289       O296   2.495       .  S
Cd289       O295   2.425       .  S
Cd289       O294   2.399   1_545  S
Cd289       O290   2.496       .  S
Cd289       O293   2.475       .  S
Cd289       O291   2.438   1_545  S
C292        O296   1.269       .  A
C292        C608   1.487       .  S
O297        C300   1.270       .  A
O297       Cd302   2.486       .  S
C298        O307   1.264       .  A
C298        O303   1.267       .  A
C298        C536   1.483       .  S
O299        C305   1.265       .  A
O299       Cd302   2.470       .  S
C300        O308   1.265       .  A
C300       C1145   1.486       .  S
C301        O306   1.268       .  A
C301        O304   1.263       .  A
C301        C485   1.474       .  S
Cd302       O309   2.488       .  S
Cd302       O308   2.438       .  S
Cd302       O307   2.448       .  S
Cd302       O303   2.494       .  S
Cd302       O306   2.470       .  S
Cd302       O304   2.420       .  S
C305        O309   1.267       .  A
C305        C476   1.489       .  S
O310        C313   1.268       .  A
O310       Cd315   2.501       .  S
C311        O320   1.264       .  A
C311        O316   1.270       .  A
C311       C1100   1.486       .  S
O312        C318   1.267       .  A
O312       Cd315   2.470       .  S
C313        O321   1.264       .  A
C313        C548   1.488       .  S
C314        O319   1.265       .  A
C314        O317   1.269       .  A
C314        C461   1.492       .  S
Cd315       O322   2.441       .  S
Cd315       O321   2.445       .  S
Cd315       O320   2.408       .  S
Cd315       O316   2.512       .  S
Cd315       O319   2.460       .  S
Cd315       O317   2.501       .  S
C318        O322   1.262       .  A
C318        C488   1.479       .  S
O323        C326   1.266       .  A
O323       Cd328   2.495       .  S
C324        O333   1.263       .  A
C324        O329   1.270       .  A
C324       C1025   1.480       .  S
O325        C331   1.269       .  A
O325       Cd328   2.474       .  S
C326        O334   1.264       .  A
C326        C497   1.484       .  S
C327        O332   1.266       .  A
C327        O330   1.267       .  A
C327        C473   1.488       .  S
Cd328       O335   2.429       .  S
Cd328       O334   2.433       .  S
Cd328       O333   2.419       .  S
Cd328       O329   2.478       .  S
Cd328       O332   2.479       .  S
Cd328       O330   2.478       .  S
C331        O335   1.263       .  A
C331        C452   1.477       .  S
O336        C339   1.268       .  A
O336       Cd341   2.504   1_565  S
C337        O346   1.265       .  A
C337        O342   1.270       .  A
C337       C1073   1.485       .  S
O338        C344   1.268       .  A
O338       Cd341   2.473       .  S
C339        O347   1.264       .  A
C339        C512   1.489       .  S
C340        O345   1.266       .  A
C340        O343   1.269       .  A
C340        C437   1.490       .  S
Cd341       O348   2.437       .  S
Cd341       O347   2.445   1_545  S
Cd341       O346   2.424       .  S
Cd341       O342   2.501       .  S
Cd341       O345   2.465       .  S
Cd341       O343   2.500       .  S
C344        O348   1.262       .  A
C344        C449   1.478       .  S
O349        C352   1.267       .  A
O349       Cd354   2.503   1_655  S
C350        O359   1.263       .  A
C350        O355   1.270       .  A
C350       C1016   1.483       .  S
O351        C357   1.268       .  A
O351       Cd354   2.470       .  S
C352        O360   1.263       .  A
C352        C593   1.486       .  S
C353        O358   1.265       .  A
C353        O356   1.268       .  A
C353        C413   1.491       .  S
Cd354       O361   2.431       .  S
Cd354       O360   2.434   1_455  S
Cd354       O359   2.427       .  S
Cd354       O355   2.504       .  S
Cd354       O358   2.477       .  S
Cd354       O356   2.500       .  S
C357        O361   1.264       .  A
C357        C428   1.475       .  S
O362        C365   1.267       .  A
O362       Cd367   2.497   1_565  S
C363        O372   1.265       .  A
C363        O368   1.270       .  A
C363        C968   1.492       .  S
O364        C370   1.267       .  A
O364       Cd367   2.462       .  S
C365        O373   1.263       .  A
C365        C584   1.483       .  S
C366        O371   1.265       .  A
C366        O369   1.269       .  A
C366        C440   1.489       .  S
Cd367       O374   2.433       .  S
Cd367       O373   2.450   1_545  S
Cd367       O372   2.439       .  S
Cd367       O368   2.517       .  S
Cd367       O371   2.471       .  S
Cd367       O369   2.481       .  S
C370        O374   1.263       .  A
C370        C425   1.475       .  S
O375        C378   1.267       .  A
O375       Cd380   2.488       .  S
C376        O385   1.259       .  A
C376        O381   1.271       .  A
C376        C956   1.489       .  S
O377        C383   1.265       .  A
O377       Cd380   2.445       .  S
C378        O386   1.265       .  A
C378        C629   1.489       .  S
C379        O384   1.265       .  A
C379        O382   1.266       .  A
C379        C464   1.489       .  S
Cd380       O387   2.476       .  S
Cd380       O386   2.473       .  S
Cd380       O385   2.417       .  S
Cd380       O381   2.535       .  S
Cd380       O384   2.485       .  S
Cd380       O382   2.477       .  S
C383        O387   1.266       .  A
C383        C404   1.477       .  S
O388        C391   1.268       .  A
O388       Cd393   2.503   1_655  S
C389        O398   1.260       .  A
C389        O394   1.271       .  A
C389        C929   1.485       .  S
O390        C396   1.268       .  A
O390       Cd393   2.454       .  S
C391        O399   1.264       .  A
C391        C656   1.489       .  S
C392        O397   1.264       .  A
C392        O395   1.267       .  A
C392        C416   1.494       .  S
Cd393       O400   2.446       .  S
Cd393       O399   2.450   1_455  S
Cd393       O398   2.437       .  S
Cd393       O394   2.514       .  S
Cd393       O397   2.481       .  S
Cd393       O395   2.510       .  S
C396        O400   1.265       .  A
C396        C401   1.478       .  S
C401        C406   1.412       .  A
C401       C1570   1.403       .  A
C402        C403   1.397   1_556  A
C402       C1569   1.403       .  A
C402        H407   1.084       .  S
C403        C404   1.410       .  A
C403        O408   1.372       .  S
C404       C1573   1.403       .  A
C405        C406   1.401       .  A
C405       C1572   1.403       .  A
C405        H409   1.084       .  S
C406        O410   1.372       .  S
O408        H412   0.992   1_554  S
O410        H411   0.992       .  S
C413        C414   1.405       .  A
C413       C1586   1.413   1_554  A
C414        C415   1.404       .  A
C414        H419   1.083       .  S
C415       C1584   1.414   1_554  A
C415        O420   1.371       .  S
C416        C417   1.406       .  A
C416       C1583   1.414       .  A
C417        C418   1.404       .  A
C417        H421   1.083       .  S
C418       C1581   1.413       .  A
C418        O422   1.371       .  S
O420        H424   0.992   1_455  S
O422        H423   0.992       .  S
C425        C426   1.406       .  A
C425       C1598   1.408       .  A
C426        C427   1.398       .  A
C426        H431   1.084       .  S
C427       C1596   1.407       .  A
C427        O432   1.371       .  S
C428        C429   1.405       .  A
C428       C1595   1.407   1_554  A
C429        C430   1.398       .  A
C429        H433   1.084       .  S
C430       C1593   1.408   1_554  A
C430        O434   1.372       .  S
O432        H436   0.992       .  S
O434        H435   0.992       .  S
C437        C438   1.406       .  A
C437       C1610   1.412   1_554  A
C438        C439   1.405       .  A
C438        H443   1.083       .  S
C439       C1608   1.414   1_554  A
C439        O444   1.372       .  S
C440        C441   1.404       .  A
C440       C1607   1.414       .  A
C441        C442   1.401       .  A
C441        H445   1.083       .  S
C442       C1605   1.412       .  A
C442        O446   1.371       .  S
O444        H448   0.992       .  S
O446        H447   0.992       .  S
C449        C454   1.413       .  A
C449       C1618   1.402   1_554  A
C450        C451   1.398       .  A
C450       C1617   1.402       .  A
C450        H455   1.084       .  S
C451        C452   1.412       .  A
C451        O456   1.372       .  S
C452       C1621   1.402       .  A
C453        C454   1.399       .  A
C453       C1620   1.402   1_554  A
C453        H457   1.084       .  S
C454        O458   1.372       .  S
O456        H460   0.992       .  S
O458        H459   0.992       .  S
C461        C462   1.407       .  A
C461       C1634   1.413       .  A
C462        C463   1.405       .  A
C462        H467   1.083       .  S
C463       C1632   1.413       .  A
C463        O468   1.371       .  S
C464        C465   1.404       .  A
C464       C1631   1.413   1_554  A
C465        C466   1.401       .  A
C465        H469   1.083       .  S
C466       C1629   1.413   1_554  A
C466        O470   1.372       .  S
O468        H472   0.992       .  S
O470        H471   0.992       .  S
C473        C474   1.405       .  A
C473       C1646   1.412       .  A
C474        C475   1.402       .  A
C474        H479   1.083       .  S
C475       C1644   1.413       .  A
C475        O480   1.371       .  S
C476        C477   1.406       .  A
C476       C1643   1.413   1_554  A
C477        C478   1.403       .  A
C477        H481   1.083       .  S
C478       C1641   1.412   1_554  A
C478        O482   1.371       .  S
O480        H484   0.992       .  S
O482        H483   0.992       .  S
C485        C490   1.411       .  A
C485       C1654   1.401   1_554  A
C486        C487   1.399       .  A
C486       C1653   1.401       .  A
C486        H491   1.084       .  S
C487        C488   1.413       .  A
C487        O492   1.372       .  S
C488       C1657   1.402       .  A
C489        C490   1.397       .  A
C489       C1656   1.402   1_554  A
C489        H493   1.083       .  S
C490        O494   1.372       .  S
O492        H496   0.992       .  S
O494        H495   0.992       .  S
C497        C498   1.407       .  A
C497        C502   1.410       .  A
C498        C499   1.406       .  A
C498        H503   1.083       .  S
C499        C500   1.412       .  A
C499        O504   1.372       .  S
C500        C501   1.403       .  A
C501        C502   1.394       .  A
C501        H505   1.084       .  S
C502        O506   1.371       .  S
O504        H508   0.992       .  S
O506        H507   0.992       .  S
C509        C510   1.407       .  A
C509        C514   1.412       .  A
C510        C511   1.406       .  A
C510        H515   1.083       .  S
C511        C512   1.412       .  A
C511        O516   1.372       .  S
C512        C513   1.406       .  A
C513        C514   1.399       .  A
C513        H517   1.084       .  S
C514        O518   1.371       .  S
O516        H520   0.992       .  S
O518        H519   0.992       .  S
C521        C522   1.406       .  A
C521       C1694   1.409       .  A
C522        C523   1.398       .  A
C522        H527   1.083       .  S
C523       C1692   1.407       .  A
C523        O528   1.372       .  S
C524        C525   1.405       .  A
C524       C1691   1.407   1_554  A
C525        C526   1.399       .  A
C525        H529   1.084       .  S
C526       C1689   1.409   1_554  A
C526        O530   1.372       .  S
O528        H532   0.992       .  S
O530        H531   0.992       .  S
C533        C534   1.405       .  A
C533        C538   1.412       .  A
C534        C535   1.402       .  A
C534        H539   1.083       .  S
C535        C536   1.411       .  A
C535        O540   1.371       .  S
C536        C537   1.404       .  A
C537        C538   1.399       .  A
C537        H541   1.084       .  S
C538        O542   1.372       .  S
O540        H544   0.992       .  S
O542        H543   0.992       .  S
C545        C546   1.407       .  A
C545        C550   1.412       .  A
C546        C547   1.406       .  A
C546        H551   1.083       .  S
C547        C548   1.412       .  A
C547        O552   1.371       .  S
C548        C549   1.404       .  A
C549        C550   1.398       .  A
C549        H553   1.084       .  S
C550        O554   1.371       .  S
O552        H556   0.992       .  S
O554        H555   0.992       .  S
C557        C558   1.405       .  A
C557       C1730   1.414       .  A
C558        C559   1.401       .  A
C558        H563   1.083       .  S
C559       C1728   1.412       .  A
C559        O564   1.371       .  S
C560        C561   1.406       .  A
C560       C1727   1.412   1_554  A
C561        C562   1.404       .  A
C561        H565   1.083       .  S
C562       C1725   1.414   1_554  A
C562        O566   1.372       .  S
O564        H568   0.992       .  S
O566        H567   0.992       .  S
C569        C570   1.403       .  A
C569       C1742   1.407   1_554  A
C570        C571   1.397       .  A
C570        H575   1.084       .  S
C571       C1740   1.410   1_554  A
C571        O576   1.372       .  S
C572        C573   1.405       .  A
C572       C1739   1.410       .  A
C573        C574   1.399       .  A
C573        H577   1.083       .  S
C574       C1737   1.407       .  A
C574        O578   1.372       .  S
O576        H580   0.992       .  S
O578        H579   0.992       .  S
C581        C582   1.405       .  A
C581        C586   1.412       .  A
C582        C583   1.398       .  A
C582       H1755   1.084       .  S
C583        C584   1.411       .  A
C583       O1756   1.371       .  S
C584        C585   1.405       .  A
C585        C586   1.403       .  A
C585        H589   1.083       .  S
C586        O590   1.372       .  S
H587       C1750   1.084       .  S
O588       C1751   1.371       .  S
O588        H592   0.992       .  S
O590        H591   0.992       .  S
C593        C594   1.404       .  A
C593        C598   1.412       .  A
C594        C595   1.397       .  A
C594        H599   1.084       .  S
C595        C596   1.412       .  A
C595        O600   1.372       .  S
C596        C597   1.407       .  A
C597        C598   1.405       .  A
C597        H601   1.083       .  S
C598        O602   1.371       .  S
O600        H604   0.992   1_554  S
O602        H603   0.992       .  S
C605        C606   1.404       .  A
C605       C1778   1.413   1_554  A
C606        C607   1.401       .  A
C606        H611   1.083       .  S
C607       C1776   1.412   1_554  A
C607        O612   1.371       .  S
C608        C609   1.405       .  A
C608       C1775   1.412       .  A
C609        C610   1.404       .  A
C609        H613   1.083       .  S
C610       C1773   1.413       .  A
C610        O614   1.372       .  S
O612        H616   0.992       .  S
O614        H615   0.992       .  S
C617        C618   1.403       .  A
C617       C1790   1.409       .  A
C618       C1787   1.394       .  A
C618        H623   1.084       .  S
C619        C620   1.408       .  A
C619       C1786   1.394   1_554  A
C619        O624   1.372   1_554  S
C620        C621   1.405       .  A
C621        C622   1.401       .  A
C621        H625   1.084       .  S
C622       C1785   1.409   1_554  A
C622        O626   1.372   1_655  S
O624       H1796   0.992       .  S
O626        H627   0.992   1_554  S
H628       O1792   0.992       .  S
C629        C630   1.406       .  A
C629        C634   1.412       .  A
C630        C631   1.403       .  A
C630        H635   1.083       .  S
C631        C632   1.412       .  A
C631        O636   1.372       .  S
C632        C633   1.405       .  A
C633        C634   1.402       .  A
C633        H637   1.083       .  S
C634        O638   1.371       .  S
O636        H640   0.992       .  S
O638        H639   0.992       .  S
C641        C642   1.405       .  A
C641       C1814   1.412       .  A
C642        C643   1.402       .  A
C642        H647   1.083       .  S
C643       C1812   1.413       .  A
C643        O648   1.371       .  S
C644        C645   1.405       .  A
C644       C1811   1.413   1_554  A
C645        C646   1.400       .  A
C645        H649   1.083       .  S
C646       C1809   1.412   1_554  A
C646        O650   1.371       .  S
O648        H652   0.992       .  S
O650        H651   0.992       .  S
C653        C654   1.405       .  A
C653        C658   1.412       .  A
C654        C655   1.399       .  A
C654        H659   1.083       .  S
C655        C656   1.413       .  A
C655        O660   1.372       .  S
C656        C657   1.407       .  A
C657        C658   1.405       .  A
C657        H661   1.083       .  S
C658        O662   1.371       .  S
O660        H664   0.992       .  S
O662        H663   0.991       .  S
C665        C666   1.407       .  A
C665        C670   1.411       .  A
C666       C1835   1.402       .  A
C666        H671   1.083       .  S
C667        C668   1.410       .  A
C667       C1834   1.402       .  A
C667        O672   1.372       .  S
C668        C669   1.406   1_554  A
C669       C1838   1.404       .  A
C669        H673   1.083       .  S
C670       C1837   1.404       .  A
C670        O674   1.371       .  S
O672        H676   0.992       .  S
O674        H675   0.992       .  S
C677        C682   1.409       .  A
C677       C1846   1.405       .  A
C678        C679   1.400   1_556  A
C678       C1845   1.405       .  A
C678        H683   1.084       .  S
C679        C680   1.408       .  A
C679        O684   1.371   1_655  S
C680       C1849   1.403       .  A
C681        C682   1.395       .  A
C681       C1848   1.403       .  A
C681        H685   1.084       .  S
C682        O686   1.372       .  S
O684        H688   0.992   1_554  S
O686        H687   0.992       .  S
C689        C690   1.407       .  A
C689        C694   1.418       .  A
C690        C691   1.399       .  A
C690        H695   1.077       .  S
C691        C692   1.413       .  A
C691        O696   1.372       .  S
C692        C693   1.400       .  A
C693        C694   1.398       .  A
C693        H697   1.083       .  S
C694        O698   1.372       .  S
O696        H700   0.992       .  S
O698        H699   0.992       .  S
C701        C702   1.407       .  A
C701        C706   1.408       .  A
C702        C703   1.396       .  A
C702        H707   1.080       .  S
C703        C704   1.402       .  A
C703        O708   1.370       .  S
C704        C705   1.406       .  A
C705        C706   1.403       .  A
C705        H709   1.084       .  S
C706        O710   1.371       .  S
O708        H712   0.992       .  S
O710        H711   0.992       .  S
C713        C714   1.399       .  A
C713        C718   1.413       .  A
C714        C715   1.402       .  A
C714        H719   1.083       .  S
C715        C716   1.420       .  A
C715        O720   1.372       .  S
C716        C717   1.407       .  A
C717        C718   1.403       .  A
C717        H721   1.078       .  S
C718        O722   1.373       .  S
O720        H724   0.991       .  S
O722        H723   0.992       .  S
C725        C726   1.397       .  A
C725        C730   1.409       .  A
C726        C727   1.401       .  A
C726        H731   1.084       .  S
C727        C728   1.416       .  A
C727        O732   1.371       .  S
C728        C729   1.403       .  A
C729        C730   1.400       .  A
C729        H733   1.083       .  S
C730        O734   1.372       .  S
O732        H736   0.992       .  S
O734        H735   0.992       .  S
C737        C738   1.410       .  A
C737        C742   1.415       .  A
C738        C739   1.407       .  A
C738        H743   1.079       .  S
C739        C740   1.411       .  A
C739        O744   1.371       .  S
C740        C741   1.399       .  A
C741        C742   1.390       .  A
C741        H745   1.084       .  S
C742        O746   1.374       .  S
O744        H748   0.992       .  S
O746        H747   0.992       .  S
C749        C750   1.394       .  A
C749        C754   1.409       .  A
C750        C751   1.400       .  A
C750        H755   1.084       .  S
C751        C752   1.422       .  A
C751        O756   1.372       .  S
C752        C753   1.408       .  A
C753        C754   1.401       .  A
C753        H757   1.082       .  S
C754        O758   1.371       .  S
O756        H760   0.992       .  S
O758        H759   0.992       .  S
C761        C762   1.413       .  A
C761        C766   1.415       .  A
C762        C763   1.403       .  A
C762        H767   1.077       .  S
C763        C764   1.408       .  A
C763        O768   1.372       .  S
C764        C765   1.404       .  A
C765        C766   1.397       .  A
C765        H769   1.083       .  S
C766        O770   1.373       .  S
O768        H772   0.992       .  S
O770        H771   0.992       .  S
C773        C774   1.403       .  A
C773        C778   1.415       .  A
C774        C775   1.401       .  A
C774        H779   1.083       .  S
C775        C776   1.412       .  A
C775        O780   1.372       .  S
C776        C777   1.397       .  A
C777        C778   1.398       .  A
C777        H781   1.084       .  S
C778        O782   1.369       .  S
O780        H784   0.992       .  S
O782        H783   0.992       .  S
C785        C786   1.400       .  A
C785        C790   1.408       .  A
C786        C787   1.397       .  A
C786        H791   1.084       .  S
C787        C788   1.406       .  A
C787        O792   1.372       .  S
C788        C789   1.395       .  A
C789        C790   1.402       .  A
C789        H793   1.084       .  S
C790        O794   1.376       .  S
O792        H796   0.991       .  S
O794        H795   0.992       .  S
C797        C798   1.407       .  A
C797        C802   1.420       .  A
C798        C799   1.396       .  A
C798        H803   1.076       .  S
C799        C800   1.412       .  A
C799        O804   1.372       .  S
C800        C801   1.401       .  A
C801        C802   1.404       .  A
C801        H805   1.083       .  S
C802        O806   1.372       .  S
O804        H808   0.992       .  S
O806        H807   0.992       .  S
C809        C810   1.395       .  A
C809        C814   1.410       .  A
C810        C811   1.400       .  A
C810        H815   1.084       .  S
C811        C812   1.420       .  A
C811        O816   1.368       .  S
C812        C813   1.408       .  A
C813        C814   1.404       .  A
C813        H817   1.083       .  S
C814        O818   1.372       .  S
O816        H820   0.992       .  S
O818        H819   0.992       .  S
C821        C822   1.400       .  A
C821        C826   1.413       .  A
C822        C823   1.400       .  A
C822        H827   1.084       .  S
C823        C824   1.418       .  A
C823        O828   1.372       .  S
C824        C825   1.409       .  A
C825        C826   1.404       .  A
C825        H829   1.078       .  S
C826        O830   1.372       .  S
O828        H832   0.992       .  S
O830        H831   0.992       .  S
C833        C834   1.404       .  A
C833        C838   1.409       .  A
C834        C835   1.397       .  A
C834        H839   1.080       .  S
C835        C836   1.407       .  A
C835        O840   1.372       .  S
C836        C837   1.406       .  A
C837        C838   1.403       .  A
C837        H841   1.083       .  S
C838        O842   1.372       .  S
O840        H844   0.992       .  S
O842        H843   0.991       .  S
C845        C846   1.404       .  A
C845        C850   1.407       .  A
C846        C847   1.400       .  A
C846        H851   1.083       .  S
C847        C848   1.411       .  A
C847        O852   1.371       .  S
C848        C849   1.405       .  A
C849        C850   1.394       .  A
C849        H853   1.077       .  S
C850        O854   1.372       .  S
O852        H856   0.992       .  S
O854        H855   0.992       .  S
C857        C858   1.414       .  A
C857        C862   1.414       .  A
C858        C859   1.403       .  A
C858        H863   1.078       .  S
C859        C860   1.407       .  A
C859        O864   1.372       .  S
C860        C861   1.405       .  A
C861        C862   1.398       .  A
C861        H865   1.083       .  S
C862        O866   1.372       .  S
O864        H868   0.992       .  S
O866        H867   0.992       .  S
C869        C870   1.402       .  A
C869        C874   1.414       .  A
C870        C871   1.402       .  A
C870        H875   1.083       .  S
C871        C872   1.414       .  A
C871        O876   1.372       .  S
C872        C873   1.395       .  A
C873        C874   1.396       .  A
C873        H877   1.080       .  S
C874        O878   1.371       .  S
O876        H880   0.992       .  S
O878        H879   0.992       .  S
C881        C882   1.403       .  A
C881        C886   1.414       .  A
C882        C883   1.401       .  A
C882        H887   1.080       .  S
C883        C884   1.409       .  A
C883        O888   1.373       .  S
C884        C885   1.402       .  A
C885        C886   1.402       .  A
C885        H889   1.084       .  S
C886        O890   1.371       .  S
O888        H892   0.992       .  S
O890        H891   0.992       .  S
C893        C894   1.409       .  A
C893        C898   1.413       .  A
C894        C895   1.396       .  A
C894        H899   1.080       .  S
C895        C896   1.402       .  A
C895        O900   1.372       .  S
C896        C897   1.404       .  A
C897        C898   1.401       .  A
C897        H901   1.084       .  S
C898        O902   1.371       .  S
O900        H904   0.991       .  S
O902        H903   0.992       .  S
C905        C906   1.401       .  A
C905        C910   1.414       .  A
C906        C907   1.404       .  A
C906        H911   1.083       .  S
C907        C908   1.419       .  A
C907        O912   1.373       .  S
C908        C909   1.406       .  A
C909        C910   1.399       .  A
C909        H913   1.076       .  S
C910        O914   1.373       .  S
O912        H916   0.992       .  S
O914        H915   0.992       .  S
C917        C918   1.404       .  A
C917        C922   1.404       .  A
C918        C919   1.402       .  A
C918        H923   1.084       .  S
C919        C920   1.407       .  A
C919        O924   1.372       .  S
C920        C921   1.402       .  A
C921        C922   1.399       .  A
C921        H925   1.081       .  S
C922        O926   1.371       .  S
O924        H928   0.992       .  S
O926        H927   0.992       .  S
C929        C930   1.399       .  A
C929        C934   1.414       .  A
C930        C931   1.399       .  A
C930        H935   1.083       .  S
C931        C932   1.419       .  A
C931        O936   1.372       .  S
C932        C933   1.406       .  A
C933        C934   1.403       .  A
C933        H937   1.078       .  S
C934        O938   1.372       .  S
O936        H940   0.992       .  S
O938        H939   0.992       .  S
C941        C942   1.405       .  A
C941        C946   1.417       .  A
C942        C943   1.403       .  A
C942        H947   1.083       .  S
C943        C944   1.411       .  A
C943        O948   1.371       .  S
C944        C945   1.393       .  A
C945        C946   1.397       .  A
C945        H949   1.084       .  S
C946        O950   1.367       .  S
O948        H952   0.992       .  S
O950        H951   0.992       .  S
C953        C954   1.407       .  A
C953        C958   1.419       .  A
C954        C955   1.397       .  A
C954        H959   1.076       .  S
C955        C956   1.413       .  A
C955        O960   1.372       .  S
C956        C957   1.402       .  A
C957        C958   1.406       .  A
C957        H961   1.083       .  S
C958        O962   1.373       .  S
O960        H964   0.992       .  S
O962        H963   0.992       .  S
C965        C966   1.413       .  A
C965        C970   1.417       .  A
C966        C967   1.409       .  A
C966        H971   1.080       .  S
C967        C968   1.411       .  A
C967        O972   1.371       .  S
C968        C969   1.403       .  A
C969        C970   1.399       .  A
C969        H973   1.083       .  S
C970        O974   1.372       .  S
O972        H976   0.992       .  S
O974        H975   0.992       .  S
C977        C978   1.405       .  A
C977        C982   1.401       .  A
C978        C979   1.401       .  A
C978        H983   1.084       .  S
C979        C980   1.403       .  A
C979        O984   1.371       .  S
C980        C981   1.403       .  A
C981        C982   1.398       .  A
C981        H985   1.082       .  S
C982        O986   1.371       .  S
O984        H988   0.991       .  S
O986        H987   0.992       .  S
C989        C990   1.407       .  A
C989        C994   1.410       .  A
C990        C991   1.399       .  A
C990        H995   1.083       .  S
C991        C992   1.407       .  A
C991        O996   1.372       .  S
C992        C993   1.404       .  A
C993        C994   1.402       .  A
C993        H997   1.084       .  S
C994        O998   1.372       .  S
O996       H1000   0.991       .  S
O998        H999   0.992       .  S
C1001      C1002   1.407       .  A
C1001      C1006   1.401       .  A
C1002      C1003   1.407       .  A
C1002      H1007   1.083       .  S
C1003      C1004   1.416       .  A
C1003      O1008   1.370       .  S
C1004      C1005   1.414       .  A
C1005      C1006   1.398       .  A
C1005      H1009   1.076       .  S
C1006      O1010   1.374       .  S
O1008      H1012   0.992       .  S
O1010      H1011   0.992       .  S
C1013      C1014   1.408       .  A
C1013      C1018   1.419       .  A
C1014      C1015   1.400       .  A
C1014      H1019   1.077       .  S
C1015      C1016   1.411       .  A
C1015      O1020   1.372       .  S
C1016      C1017   1.400       .  A
C1017      C1018   1.402       .  A
C1017      H1021   1.083       .  S
C1018      O1022   1.372       .  S
O1020      H1024   0.992       .  S
O1022      H1023   0.991       .  S
C1025      C1026   1.399       .  A
C1025      C1030   1.412       .  A
C1026      C1027   1.398       .  A
C1026      H1031   1.084       .  S
C1027      C1028   1.418       .  A
C1027      O1032   1.373       .  S
C1028      C1029   1.407       .  A
C1029      C1030   1.399       .  A
C1029      H1033   1.078       .  S
C1030      O1034   1.372       .  S
O1032      H1036   0.992       .  S
O1034      H1035   0.992       .  S
C1037      C1038   1.405       .  A
C1037      C1042   1.403       .  A
C1038      C1039   1.400       .  A
C1038      H1043   1.084       .  S
C1039      C1040   1.407       .  A
C1039      O1044   1.371       .  S
C1040      C1041   1.406       .  A
C1041      C1042   1.395       .  A
C1041      H1045   1.083       .  S
C1042      O1046   1.372       .  S
O1044      H1048   0.992       .  S
O1046      H1047   0.992       .  S
C1049      C1050   1.405       .  A
C1049      C1054   1.401       .  A
C1050      C1051   1.398       .  A
C1050      H1055   1.084       .  S
C1051      C1052   1.404       .  A
C1051      O1056   1.372       .  S
C1052      C1053   1.407       .  A
C1053      C1054   1.397       .  A
C1053      H1057   1.083       .  S
C1054      O1058   1.372       .  S
O1056      H1060   0.992       .  S
O1058      H1059   0.992       .  S
C1061      C1062   1.393       .  A
C1061      C1066   1.411       .  A
C1062      C1063   1.397       .  A
C1062      H1067   1.084       .  S
C1063      C1064   1.417       .  A
C1063      O1068   1.368       .  S
C1064      C1065   1.405       .  A
C1065      C1066   1.406       .  A
C1065      H1069   1.083       .  S
C1066      O1070   1.371       .  S
O1068      H1072   0.992       .  S
O1070      H1071   0.992       .  S
C1073      C1074   1.400       .  A
C1073      C1078   1.411       .  A
C1074      C1075   1.394       .  A
C1074      H1079   1.084       .  S
C1075      C1076   1.418       .  A
C1075      O1080   1.373       .  S
C1076      C1077   1.410       .  A
C1077      C1078   1.408       .  A
C1077      H1081   1.079       .  S
C1078      O1082   1.371       .  S
O1080      H1084   0.992       .  S
O1082      H1083   0.992       .  S
C1085      C1086   1.403       .  A
C1085      C1090   1.418       .  A
C1086      C1087   1.397       .  A
C1086      H1091   1.076       .  S
C1087      C1088   1.409       .  A
C1087      O1092   1.371       .  S
C1088      C1089   1.402       .  A
C1089      C1090   1.405       .  A
C1089      H1093   1.083       .  S
C1090      O1094   1.372       .  S
O1092      H1096   0.992       .  S
O1094      H1095   0.993       .  S
C1097      C1098   1.413       .  A
C1097      C1102   1.416       .  A
C1098      C1099   1.408       .  A
C1098      H1103   1.079       .  S
C1099      C1100   1.411       .  A
C1099      O1104   1.371       .  S
C1100      C1101   1.401       .  A
C1101      C1102   1.392       .  A
C1101      H1105   1.083       .  S
C1102      O1106   1.373       .  S
O1104      H1108   0.992       .  S
O1106      H1107   0.992       .  S
C1109      C1110   1.403       .  A
C1109      C1114   1.405       .  A
C1110      C1111   1.399       .  A
C1110      H1115   1.084       .  S
C1111      C1112   1.406       .  A
C1111      O1116   1.371       .  S
C1112      C1113   1.402       .  A
C1113      C1114   1.404       .  A
C1113      H1117   1.084       .  S
C1114      O1118   1.375       .  S
O1116      H1120   0.992       .  S
O1118      H1119   0.992       .  S
C1121      C1122   1.408       .  A
C1121      C1126   1.411       .  A
C1122      C1123   1.397       .  A
C1122      H1127   1.083       .  S
C1123      C1124   1.408       .  A
C1123      O1128   1.372       .  S
C1124      C1125   1.404       .  A
C1125      C1126   1.401       .  A
C1125      H1129   1.084       .  S
C1126      O1130   1.372       .  S
O1128      H1132   0.992       .  S
O1130      H1131   0.992       .  S
C1133      C1134   1.408       .  A
C1133      C1138   1.420       .  A
C1134      C1135   1.404       .  A
C1134      H1139   1.083       .  S
C1135      C1136   1.409       .  A
C1135      O1140   1.372       .  S
C1136      C1137   1.396       .  A
C1137      C1138   1.401       .  A
C1137      H1141   1.084       .  S
C1138      O1142   1.371       .  S
O1140      H1144   0.992       .  S
O1142      H1143   0.992       .  S
C1145      C1146   1.403       .  A
C1145      C1150   1.409       .  A
C1146      C1147   1.398       .  A
C1146      H1151   1.083       .  S
C1147      C1148   1.417       .  A
C1147      O1152   1.373       .  S
C1148      C1149   1.411       .  A
C1149      C1150   1.404       .  A
C1149      H1153   1.078       .  S
C1150      O1154   1.371       .  S
O1152      H1156   0.992       .  S
O1154      H1155   0.992       .  S
C1157      C1158   1.402       .  A
C1157      C1162   1.414       .  A
C1158      C1159   1.398       .  A
C1158      H1163   1.083       .  S
C1159      C1160   1.410       .  A
C1159      O1164   1.372       .  S
C1160      C1161   1.396       .  A
C1161      C1162   1.398       .  A
C1161      H1165   1.084       .  S
C1162      O1166   1.370       .  S
O1164      H1168   0.992       .  S
O1166      H1167   0.992       .  S
C1169      C1170   1.545       .  S
C1169      C1175   1.530       .  S
C1169      C1173   1.549       .  S
C1169      C2316   1.532       .  S
C1170      H1177   1.086       .  S
C1170      C1171   1.371       .  D
C1171      C1172   1.533       .  S
C1171      C2325   1.485       .  S
C1172      C1176   1.538       .  S
C1172      C1174   1.535       .  S
C1172      H1178   1.107       .  S
C1173      H1179   1.082       .  S
C1173      C1174   1.369       .  D
C1174      C2304   1.484       .  S
C1175      H1180   1.086       .  S
C1175      C1176   1.358       .  D
C1176      C2289   1.490       .  S
C1181      C1182   1.542       .  S
C1181      C1187   1.529       .  S
C1181      C1185   1.548       .  S
C1181      C2265   1.532       .  S
C1182      H1189   1.086       .  S
C1182      C1183   1.363       .  D
C1183      C1184   1.536       .  S
C1183      C2277   1.474       .  S
C1184      C1188   1.546       .  S
C1184      C1186   1.546       .  S
C1184      H1190   1.105       .  S
C1185      H1191   1.083       .  S
C1185      C1186   1.376       .  D
C1186      C2301   1.505       .  S
C1187      H1192   1.083       .  S
C1187      C1188   1.359       .  D
C1188      C2253   1.501       .  S
C1193      C1194   1.545       .  S
C1193      C1199   1.530       .  S
C1193      C1197   1.555       .  S
C1193      C2244   1.532       .  S
C1194      H1201   1.085       .  S
C1194      C1195   1.367       .  D
C1195      C1196   1.532       .  S
C1195      C2292   1.482       .  S
C1196      C1200   1.530       .  S
C1196      C1198   1.538       .  S
C1196      H1202   1.110       .  S
C1197      H1203   1.083       .  S
C1197      C1198   1.377       .  D
C1198      C2232   1.495       .  S
C1199      H1204   1.087       .  S
C1199      C1200   1.352       .  D
C1200      C2217   1.472       .  S
C1205      C1206   1.557       .  S
C1205      C1211   1.531       .  S
C1205      C1209   1.538       .  S
C1205      C2196   1.526       .  S
C1206      H1213   1.082       .  S
C1206      C1207   1.373       .  D
C1207      C1208   1.528       .  S
C1207      C2208   1.479       .  S
C1208      C1212   1.534       .  S
C1208      C1210   1.537       .  S
C1208      H1214   1.111       .  S
C1209      H1215   1.086       .  S
C1209      C1210   1.364       .  D
C1210      C2229   1.480       .  S
C1211      H1216   1.087       .  S
C1211      C1212   1.354       .  D
C1212      C2280   1.476       .  S
C1217      C1218   1.555       .  S
C1217      C1223   1.530       .  S
C1217      C1221   1.543       .  S
C1217      C2181   1.532       .  S
C1218      H1225   1.082       .  S
C1218      C1219   1.370       .  D
C1219      C1220   1.527       .  S
C1219      C2220   1.477       .  S
C1220      C1224   1.539       .  S
C1220      C1222   1.538       .  S
C1220      H1226   1.107       .  S
C1221      H1227   1.086       .  S
C1221      C1222   1.369       .  D
C1222      C2169   1.489       .  S
C1223      H1228   1.087       .  S
C1223      C1224   1.357       .  D
C1224      C2157   1.489       .  S
C1229      C1230   1.548       .  S
C1229      C1235   1.528       .  S
C1229      C1233   1.557       .  S
C1229      C2133   1.536       .  S
C1230      H1237   1.085       .  S
C1230      C1231   1.366       .  D
C1231      C1232   1.531       .  S
C1231      C2148   1.474       .  S
C1232      C1236   1.530       .  S
C1232      C1234   1.543       .  S
C1232      H1238   1.107       .  S
C1233      H1239   1.081       .  S
C1233      C1234   1.383       .  D
C1234      C2172   1.513       .  S
C1235      H1240   1.087       .  S
C1235      C1236   1.351       .  D
C1236      C2205   1.473       .  S
C1241      C1242   1.558       .  S
C1241      C1247   1.531       .  S
C1241      C1245   1.544       .  S
C1241      C2121   1.537       .  S
C1242      H1249   1.080       .  S
C1242      C1243   1.369       .  D
C1243      C1244   1.529       .  S
C1243      C2160   1.482       .  S
C1244      C1248   1.533       .  S
C1244      C1246   1.538       .  S
C1244      H1250   1.110       .  S
C1245      H1251   1.086       .  S
C1245      C1246   1.372       .  D
C1246      C2109   1.495       .  S
C1247      H1252   1.087       .  S
C1247      C1248   1.356       .  D
C1248      C2328   1.476       .  S
C1253      C1254   1.559       .  S
C1253      C1259   1.534       .  S
C1253      C1257   1.537       .  S
C1253      C2100   1.531       .  S
C1254      H1261   1.082       .  S
C1254      C1255   1.377       .  D
C1255      C1256   1.533       .  S
C1255      C2256   1.488       .  S
C1256      C1260   1.533       .  S
C1256      C1258   1.534       .  S
C1256      H1262   1.110       .  S
C1257      H1263   1.086       .  S
C1257      C1258   1.364       .  D
C1258      C2112   1.478       .  S
C1259      H1264   1.087       .  S
C1259      C1260   1.352       .  D
C1260      C2145   1.473       .  S
C1265      C1266   1.538       .  S
C1265      C1271   1.532       .  S
C1265      C1269   1.555       .  S
C1265      C2076   1.535       .  S
C1266      H1273   1.085       .  S
C1266      C1267   1.372       .  D
C1267      C1268   1.544       .  S
C1267      C2061   1.495       .  S
C1268      C1272   1.540       .  S
C1268      C1270   1.530       .  S
C1268      H1274   1.109       .  S
C1269      H1275   1.081       .  S
C1269      C1270   1.366       .  D
C1270      C2085   1.476       .  S
C1271      H1276   1.086       .  S
C1271      C1272   1.360       .  D
C1272      C2049   1.492       .  S
C1277      C1278   1.546       .  S
C1277      C1283   1.531       .  S
C1277      C1281   1.552       .  S
C1277      C2025   1.532       .  S
C1278      H1285   1.083       .  S
C1278      C1279   1.365       .  D
C1279      C1280   1.532       .  S
C1279      C2064   1.478       .  S
C1280      C1284   1.532       .  S
C1280      C1282   1.533       .  S
C1280      H1286   1.107       .  S
C1281      H1287   1.085       .  S
C1281      C1282   1.375       .  D
C1282      C2037   1.488       .  S
C1283      H1288   1.087       .  S
C1283      C1284   1.356       .  D
C1284      C2013   1.482       .  S
C1289      C1290   1.539       .  S
C1289      C1295   1.537       .  S
C1289      C1293   1.558       .  S
C1289      C1992   1.536       .  S
C1290      H1297   1.086       .  S
C1290      C1291   1.368       .  D
C1291      C1292   1.537       .  S
C1291      C1977   1.484       .  S
C1292      C1296   1.535       .  S
C1292      C1294   1.529       .  S
C1292      H1298   1.111       .  S
C1293      H1299   1.081       .  S
C1293      C1294   1.374       .  D
C1294      C2001   1.486       .  S
C1295      H1300   1.087       .  S
C1295      C1296   1.355       .  D
C1296      C2088   1.478       .  S
C1301      C1302   1.542       .  S
C1301      C1307   1.525       .  S
C1301      C1305   1.556       .  S
C1301      C1965   1.532       .  S
C1302      H1309   1.085       .  S
C1302      C1303   1.375       .  D
C1303      C1304   1.545       .  S
C1303      C1980   1.504       .  S
C1304      C1308   1.537       .  S
C1304      C1306   1.532       .  S
C1304      H1310   1.107       .  S
C1305      H1311   1.080       .  S
C1305      C1306   1.372       .  D
C1306      C2016   1.489       .  S
C1307      H1312   1.087       .  S
C1307      C1308   1.348       .  D
C1308      C1953   1.471       .  S
C1313      C1314   1.546       .  S
C1313      C1319   1.533       .  S
C1313      C1317   1.550       .  S
C1313      C1929   1.532       .  S
C1314      H1321   1.081       .  S
C1314      C1315   1.366       .  D
C1315      C1316   1.537       .  S
C1315      C1917   1.482       .  S
C1316      C1320   1.538       .  S
C1316      C1318   1.533       .  S
C1316      H1322   1.109       .  S
C1317      H1323   1.086       .  S
C1317      C1318   1.372       .  D
C1318      C1941   1.490       .  S
C1319      H1324   1.087       .  S
C1319      C1320   1.358       .  D
C1320      C2004   1.485       .  S
C1325      C1326   1.549       .  S
C1325      C1331   1.531       .  S
C1325      C1329   1.540       .  S
C1325      C1905   1.526       .  S
C1326      H1333   1.081       .  S
C1326      C1327   1.381       .  D
C1327      C1328   1.545       .  S
C1327      C1920   1.506       .  S
C1328      C1332   1.532       .  S
C1328      C1330   1.529       .  S
C1328      H1334   1.106       .  S
C1329      H1335   1.086       .  S
C1329      C1330   1.359       .  D
C1330      C1956   1.463       .  S
C1331      H1336   1.087       .  S
C1331      C1332   1.353       .  D
C1332      C1893   1.479       .  S
C1337      C1338   1.540       .  S
C1337      C1343   1.534       .  S
C1337      C1341   1.561       .  S
C1337      C1884   1.536       .  S
C1338      H1345   1.086       .  S
C1338      C1339   1.367       .  D
C1339      C1340   1.537       .  S
C1339      C1869   1.488       .  S
C1340      C1344   1.534       .  S
C1340      C1342   1.528       .  S
C1340      H1346   1.110       .  S
C1341      H1347   1.082       .  S
C1341      C1342   1.375       .  D
C1342      C2052   1.483       .  S
C1343      H1348   1.087       .  S
C1343      C1344   1.357       .  D
C1344      C1944   1.482       .  S
C1349      C1350   1.538       .  S
C1349      C1355   1.530       .  S
C1349      C1353   1.555       .  S
C1349      C1857   1.529       .  S
C1350      H1357   1.086       .  S
C1350      C1351   1.365       .  D
C1351      C1352   1.538       .  S
C1351      C1872   1.479       .  S
C1352      C1356   1.539       .  S
C1352      C1354   1.534       .  S
C1352      H1358   1.108       .  S
C1353      H1359   1.081       .  S
C1353      C1354   1.374       .  D
C1354      C1896   1.491       .  S
C1355      H1360   1.086       .  S
C1355      C1356   1.355       .  D
C1356      C2040   1.484       .  S
O1361      C1364   1.261       .  A
O1361     Cd1366   2.422       .  S
C1362      O1371   1.266       .  A
C1362      O1367   1.268       .  A
C1362      C1821   1.489       .  S
O1363      C1369   1.264       .  A
O1363     Cd1366   2.454       .  S
C1364      O1372   1.270       .  A
C1364      C2028   1.486       .  S
C1365      O1370   1.268       .  A
C1365      O1368   1.265       .  A
C1365      C1833   1.490       .  S
Cd1366     O1373   2.446       .  S
Cd1366     O1372   2.515       .  S
Cd1366     O1371   2.450       .  S
Cd1366     O1367   2.495       .  S
Cd1366     O1370   2.499       .  S
Cd1366     O1368   2.461       .  S
C1369      O1373   1.265       .  A
C1369      C1845   1.475       .  S
O1374      C1377   1.267       .  A
O1374     Cd1379   2.487       .  S
C1375      O1384   1.258       .  A
C1375      O1380   1.270   1_655  A
C1375      C2073   1.488       .  S
O1376      C1382   1.264       .  A
O1376     Cd1379   2.471       .  S
C1377      O1385   1.264       .  A
C1377      C1800   1.488       .  S
C1378      O1383   1.266       .  A
C1378      O1381   1.266   1_655  A
C1378      C1848   1.473       .  S
Cd1379     O1386   2.477       .  S
Cd1379     O1385   2.465       .  S
Cd1379     O1384   2.421   1_455  S
Cd1379     O1380   2.531       .  S
Cd1379     O1383   2.433   1_455  S
Cd1379     O1381   2.460       .  S
C1382      O1386   1.267       .  A
C1382      C1812   1.487       .  S
O1387      C1390   1.271   1_545  A
O1387     Cd1392   2.526       .  S
C1388      O1397   1.264       .  A
C1388      O1393   1.269       .  A
C1388      C1764   1.487       .  S
O1389      C1395   1.268       .  A
O1389     Cd1392   2.429   1_565  S
C1390      O1398   1.260       .  A
C1390      C1881   1.486       .  S
C1391      O1396   1.264       .  A
C1391      O1394   1.267       .  A
C1391      C1773   1.488       .  S
Cd1392     O1399   2.440       .  S
Cd1392     O1398   2.432   1_545  S
Cd1392     O1397   2.433       .  S
Cd1392     O1393   2.500       .  S
Cd1392     O1396   2.469       .  S
Cd1392     O1394   2.484       .  S
C1395      O1399   1.266   1_565  A
C1395      C1788   1.473       .  S
O1400      C1403   1.265       .  A
O1400     Cd1405   2.469       .  S
C1401      O1410   1.260       .  A
C1401      O1406   1.269   1_655  A
C1401      C1860   1.482       .  S
O1402      C1408   1.265       .  A
O1402     Cd1405   2.462       .  S
C1403      O1411   1.265       .  A
C1403      C1749   1.484       .  S
C1404      O1409   1.266       .  A
C1404      O1407   1.265   1_655  A
C1404      C1785   1.473       .  S
Cd1405     O1412   2.478       .  S
Cd1405     O1411   2.451       .  S
Cd1405     O1410   2.427   1_455  S
Cd1405     O1406   2.491       .  S
Cd1405     O1409   2.430   1_455  S
Cd1405     O1407   2.460       .  S
C1408      O1412   1.266       .  A
C1408      C1809   1.486       .  S
O1413      C1416   1.271       .  A
O1413     Cd1418   2.521       .  S
C1414      O1423   1.264       .  A
C1414      O1419   1.268       .  A
C1414      C1713   1.489       .  S
O1415      C1421   1.267       .  A
O1415     Cd1418   2.455       .  S
C1416      O1424   1.260       .  A
C1416      C1968   1.483       .  S
C1417      O1422   1.264       .  A
C1417      O1420   1.267       .  A
C1417      C1725   1.490       .  S
Cd1418     O1425   2.445       .  S
Cd1418     O1424   2.404       .  S
Cd1418     O1423   2.443       .  S
Cd1418     O1419   2.512       .  S
Cd1418     O1422   2.476       .  S
Cd1418     O1420   2.485       .  S
C1421      O1425   1.266       .  A
C1421      C1740   1.477       .  S
O1426      C1429   1.267       .  A
O1426     Cd1431   2.493       .  S
C1427      O1436   1.262       .  A
C1427      O1432   1.269       .  A
C1427      C1989   1.485       .  S
O1428      C1434   1.265       .  A
O1428     Cd1431   2.478       .  S
C1429      O1437   1.262       .  A
C1429      C1701   1.484       .  S
C1430      O1435   1.266       .  A
C1430      O1433   1.265       .  A
C1430      C1737   1.472       .  S
Cd1431     O1438   2.484       .  S
Cd1431     O1437   2.452       .  S
Cd1431     O1436   2.465       .  S
Cd1431     O1432   2.492       .  S
Cd1431     O1435   2.446       .  S
Cd1431     O1433   2.450       .  S
C1434      O1438   1.266       .  A
C1434      C1836   1.487       .  S
O1439      C1442   1.270       .  A
O1439     Cd1444   2.493       .  S
C1440      O1449   1.264       .  A
C1440      O1445   1.267       .  A
C1440      C1677   1.490       .  S
O1441      C1447   1.267       .  A
O1441     Cd1444   2.466       .  S
C1442      O1450   1.264       .  A
C1442      C1932   1.485       .  S
C1443      O1448   1.265       .  A
C1443      O1446   1.267       .  A
C1443      C1728   1.488       .  S
Cd1444     O1451   2.442       .  S
Cd1444     O1450   2.425       .  S
Cd1444     O1449   2.462       .  S
Cd1444     O1445   2.510       .  S
Cd1444     O1448   2.462       .  S
Cd1444     O1446   2.497       .  S
C1447      O1451   1.264       .  A
C1447      C1692   1.477       .  S
O1452      C1455   1.266       .  A
O1452     Cd1457   2.503       .  S
C1453      O1462   1.265       .  A
C1453      O1458   1.269   1_565  A
C1453      C1908   1.480       .  S
O1454      C1460   1.265       .  A
O1454     Cd1457   2.453       .  S
C1455      O1463   1.263       .  A
C1455      C1668   1.483       .  S
C1456      O1461   1.265   1_565  A
C1456      O1459   1.262       .  A
C1456      C1689   1.479       .  S
Cd1457     O1464   2.495       .  S
Cd1457     O1463   2.425       .  S
Cd1457     O1462   2.399   1_545  S
Cd1457     O1458   2.496       .  S
Cd1457     O1461   2.475       .  S
Cd1457     O1459   2.438   1_545  S
C1460      O1464   1.269       .  A
C1460      C1776   1.487       .  S
O1465      C1468   1.270       .  A
O1465     Cd1470   2.486       .  S
C1466      O1475   1.264       .  A
C1466      O1471   1.267       .  A
C1466      C1704   1.483       .  S
O1467      C1473   1.265       .  A
O1467     Cd1470   2.470       .  S
C1468      O1476   1.265       .  A
C1468      C2313   1.486       .  S
C1469      O1474   1.268       .  A
C1469      O1472   1.263       .  A
C1469      C1653   1.474       .  S
Cd1470     O1477   2.488       .  S
Cd1470     O1476   2.438       .  S
Cd1470     O1475   2.448       .  S
Cd1470     O1471   2.494       .  S
Cd1470     O1474   2.470       .  S
Cd1470     O1472   2.420       .  S
C1473      O1477   1.267       .  A
C1473      C1644   1.489       .  S
O1478      C1481   1.268       .  A
O1478     Cd1483   2.501       .  S
C1479      O1488   1.264       .  A
C1479      O1484   1.270       .  A
C1479      C2268   1.486       .  S
O1480      C1486   1.267       .  A
O1480     Cd1483   2.470       .  S
C1481      O1489   1.264       .  A
C1481      C1716   1.488       .  S
C1482      O1487   1.265       .  A
C1482      O1485   1.269       .  A
C1482      C1629   1.492       .  S
Cd1483     O1490   2.441       .  S
Cd1483     O1489   2.445       .  S
Cd1483     O1488   2.408       .  S
Cd1483     O1484   2.512       .  S
Cd1483     O1487   2.460       .  S
Cd1483     O1485   2.501       .  S
C1486      O1490   1.262       .  A
C1486      C1656   1.479       .  S
O1491      C1494   1.266       .  A
O1491     Cd1496   2.495       .  S
C1492      O1501   1.263       .  A
C1492      O1497   1.270       .  A
C1492      C2193   1.480       .  S
O1493      C1499   1.269       .  A
O1493     Cd1496   2.474       .  S
C1494      O1502   1.264       .  A
C1494      C1665   1.484       .  S
C1495      O1500   1.266       .  A
C1495      O1498   1.267       .  A
C1495      C1641   1.488       .  S
Cd1496     O1503   2.429       .  S
Cd1496     O1502   2.433       .  S
Cd1496     O1501   2.419       .  S
Cd1496     O1497   2.478       .  S
Cd1496     O1500   2.479       .  S
Cd1496     O1498   2.478       .  S
C1499      O1503   1.263       .  A
C1499      C1620   1.477       .  S
O1504      C1507   1.268       .  A
O1504     Cd1509   2.504   1_565  S
C1505      O1514   1.265       .  A
C1505      O1510   1.270       .  A
C1505      C2241   1.485       .  S
O1506      C1512   1.268       .  A
O1506     Cd1509   2.473       .  S
C1507      O1515   1.264       .  A
C1507      C1680   1.489       .  S
C1508      O1513   1.266       .  A
C1508      O1511   1.269       .  A
C1508      C1605   1.490       .  S
Cd1509     O1516   2.437       .  S
Cd1509     O1515   2.445   1_545  S
Cd1509     O1514   2.424       .  S
Cd1509     O1510   2.501       .  S
Cd1509     O1513   2.465       .  S
Cd1509     O1511   2.500       .  S
C1512      O1516   1.262       .  A
C1512      C1617   1.478       .  S
O1517      C1520   1.267       .  A
O1517     Cd1522   2.503   1_655  S
C1518      O1527   1.263       .  A
C1518      O1523   1.270       .  A
C1518      C2184   1.483       .  S
O1519      C1525   1.268       .  A
O1519     Cd1522   2.470       .  S
C1520      O1528   1.263       .  A
C1520      C1761   1.486       .  S
C1521      O1526   1.265       .  A
C1521      O1524   1.268       .  A
C1521      C1581   1.491       .  S
Cd1522     O1529   2.431       .  S
Cd1522     O1528   2.434   1_455  S
Cd1522     O1527   2.427       .  S
Cd1522     O1523   2.504       .  S
Cd1522     O1526   2.477       .  S
Cd1522     O1524   2.500       .  S
C1525      O1529   1.264       .  A
C1525      C1596   1.475       .  S
O1530      C1533   1.267       .  A
O1530     Cd1535   2.497   1_565  S
C1531      O1540   1.265       .  A
C1531      O1536   1.270       .  A
C1531      C2136   1.492       .  S
O1532      C1538   1.267       .  A
O1532     Cd1535   2.462       .  S
C1533      O1541   1.263       .  A
C1533      C1752   1.483       .  S
C1534      O1539   1.265       .  A
C1534      O1537   1.269       .  A
C1534      C1608   1.489       .  S
Cd1535     O1542   2.433       .  S
Cd1535     O1541   2.450   1_545  S
Cd1535     O1540   2.439       .  S
Cd1535     O1536   2.517       .  S
Cd1535     O1539   2.471       .  S
Cd1535     O1537   2.481       .  S
C1538      O1542   1.263       .  A
C1538      C1593   1.475       .  S
O1543      C1546   1.267       .  A
O1543     Cd1548   2.488       .  S
C1544      O1553   1.259       .  A
C1544      O1549   1.271       .  A
C1544      C2124   1.489       .  S
O1545      C1551   1.265       .  A
O1545     Cd1548   2.445       .  S
C1546      O1554   1.265       .  A
C1546      C1797   1.489       .  S
C1547      O1552   1.265       .  A
C1547      O1550   1.266       .  A
C1547      C1632   1.489       .  S
Cd1548     O1555   2.476       .  S
Cd1548     O1554   2.473       .  S
Cd1548     O1553   2.417       .  S
Cd1548     O1549   2.535       .  S
Cd1548     O1552   2.485       .  S
Cd1548     O1550   2.477       .  S
C1551      O1555   1.266       .  A
C1551      C1572   1.477       .  S
O1556      C1559   1.268       .  A
O1556     Cd1561   2.503   1_655  S
C1557      O1566   1.260       .  A
C1557      O1562   1.271       .  A
C1557      C2097   1.485       .  S
O1558      C1564   1.268       .  A
O1558     Cd1561   2.454       .  S
C1559      O1567   1.264       .  A
C1559      C1824   1.489       .  S
C1560      O1565   1.264       .  A
C1560      O1563   1.267       .  A
C1560      C1584   1.494       .  S
Cd1561     O1568   2.446       .  S
Cd1561     O1567   2.450   1_455  S
Cd1561     O1566   2.437       .  S
Cd1561     O1562   2.514       .  S
Cd1561     O1565   2.481       .  S
Cd1561     O1563   2.510       .  S
C1564      O1568   1.265       .  A
C1564      C1569   1.478       .  S
C1569      C1574   1.412       .  A
C1570      C1571   1.397       .  A
C1570      H1575   1.084       .  S
C1571      C1572   1.410       .  A
C1571      O1576   1.372       .  S
C1573      C1574   1.401   1_554  A
C1573      H1577   1.084       .  S
C1574      O1578   1.372       .  S
O1576      H1580   0.992       .  S
O1578      H1579   0.992   1_556  S
C1581      C1582   1.405       .  A
C1582      C1583   1.404       .  A
C1582      H1587   1.083       .  S
C1583      O1588   1.371       .  S
C1584      C1585   1.406       .  A
C1585      C1586   1.404       .  A
C1585      H1589   1.083       .  S
C1586      O1590   1.371       .  S
O1588      H1592   0.992   1_455  S
O1590      H1591   0.992       .  S
C1593      C1594   1.406       .  A
C1594      C1595   1.398       .  A
C1594      H1599   1.084       .  S
C1595      O1600   1.371       .  S
C1596      C1597   1.405       .  A
C1597      C1598   1.398       .  A
C1597      H1601   1.084       .  S
C1598      O1602   1.372       .  S
O1600      H1604   0.992       .  S
O1602      H1603   0.992       .  S
C1605      C1606   1.406       .  A
C1606      C1607   1.405       .  A
C1606      H1611   1.083       .  S
C1607      O1612   1.372       .  S
C1608      C1609   1.404       .  A
C1609      C1610   1.401       .  A
C1609      H1613   1.083       .  S
C1610      O1614   1.371       .  S
O1612      H1616   0.992       .  S
O1614      H1615   0.992       .  S
C1617      C1622   1.413       .  A
C1618      C1619   1.398       .  A
C1618      H1623   1.084       .  S
C1619      C1620   1.412       .  A
C1619      O1624   1.372       .  S
C1621      C1622   1.399       .  A
C1621      H1625   1.084       .  S
C1622      O1626   1.372       .  S
O1624      H1628   0.992       .  S
O1626      H1627   0.992       .  S
C1629      C1630   1.407       .  A
C1630      C1631   1.405       .  A
C1630      H1635   1.083       .  S
C1631      O1636   1.371       .  S
C1632      C1633   1.404       .  A
C1633      C1634   1.401       .  A
C1633      H1637   1.083       .  S
C1634      O1638   1.372       .  S
O1636      H1640   0.992       .  S
O1638      H1639   0.992       .  S
C1641      C1642   1.405       .  A
C1642      C1643   1.402       .  A
C1642      H1647   1.083       .  S
C1643      O1648   1.371       .  S
C1644      C1645   1.406       .  A
C1645      C1646   1.403       .  A
C1645      H1649   1.083       .  S
C1646      O1650   1.371       .  S
O1648      H1652   0.992       .  S
O1650      H1651   0.992       .  S
C1653      C1658   1.411       .  A
C1654      C1655   1.399       .  A
C1654      H1659   1.084       .  S
C1655      C1656   1.413       .  A
C1655      O1660   1.372       .  S
C1657      C1658   1.397       .  A
C1657      H1661   1.083       .  S
C1658      O1662   1.372       .  S
O1660      H1664   0.992       .  S
O1662      H1663   0.992       .  S
C1665      C1666   1.407       .  A
C1665      C1670   1.410       .  A
C1666      C1667   1.406       .  A
C1666      H1671   1.083       .  S
C1667      C1668   1.412       .  A
C1667      O1672   1.372       .  S
C1668      C1669   1.403       .  A
C1669      C1670   1.394       .  A
C1669      H1673   1.084       .  S
C1670      O1674   1.371       .  S
O1672      H1676   0.992       .  S
O1674      H1675   0.992       .  S
C1677      C1678   1.407       .  A
C1677      C1682   1.412       .  A
C1678      C1679   1.406       .  A
C1678      H1683   1.083       .  S
C1679      C1680   1.412       .  A
C1679      O1684   1.372       .  S
C1680      C1681   1.406       .  A
C1681      C1682   1.399       .  A
C1681      H1685   1.084       .  S
C1682      O1686   1.371       .  S
O1684      H1688   0.992       .  S
O1686      H1687   0.992       .  S
C1689      C1690   1.406       .  A
C1690      C1691   1.398       .  A
C1690      H1695   1.083       .  S
C1691      O1696   1.372       .  S
C1692      C1693   1.405       .  A
C1693      C1694   1.399       .  A
C1693      H1697   1.084       .  S
C1694      O1698   1.372       .  S
O1696      H1700   0.992       .  S
O1698      H1699   0.992       .  S
C1701      C1702   1.405       .  A
C1701      C1706   1.412       .  A
C1702      C1703   1.402       .  A
C1702      H1707   1.083       .  S
C1703      C1704   1.411       .  A
C1703      O1708   1.371       .  S
C1704      C1705   1.404       .  A
C1705      C1706   1.399       .  A
C1705      H1709   1.084       .  S
C1706      O1710   1.372       .  S
O1708      H1712   0.992       .  S
O1710      H1711   0.992       .  S
C1713      C1714   1.407       .  A
C1713      C1718   1.412       .  A
C1714      C1715   1.406       .  A
C1714      H1719   1.083       .  S
C1715      C1716   1.412       .  A
C1715      O1720   1.371       .  S
C1716      C1717   1.404       .  A
C1717      C1718   1.398       .  A
C1717      H1721   1.084       .  S
C1718      O1722   1.371       .  S
O1720      H1724   0.992       .  S
O1722      H1723   0.992       .  S
C1725      C1726   1.405       .  A
C1726      C1727   1.401       .  A
C1726      H1731   1.083       .  S
C1727      O1732   1.371       .  S
C1728      C1729   1.406       .  A
C1729      C1730   1.404       .  A
C1729      H1733   1.083       .  S
C1730      O1734   1.372       .  S
O1732      H1736   0.992       .  S
O1734      H1735   0.992       .  S
C1737      C1738   1.403       .  A
C1738      C1739   1.397       .  A
C1738      H1743   1.084       .  S
C1739      O1744   1.372       .  S
C1740      C1741   1.405       .  A
C1741      C1742   1.399       .  A
C1741      H1745   1.083       .  S
C1742      O1746   1.372       .  S
O1744      H1748   0.992       .  S
O1746      H1747   0.992   1_556  S
C1749      C1750   1.405       .  A
C1749      C1754   1.412       .  A
C1750      C1751   1.398       .  A
C1751      C1752   1.411       .  A
C1752      C1753   1.405       .  A
C1753      C1754   1.403       .  A
C1753      H1757   1.083       .  S
C1754      O1758   1.372       .  S
O1756      H1760   0.992       .  S
O1758      H1759   0.992       .  S
C1761      C1762   1.404       .  A
C1761      C1766   1.412       .  A
C1762      C1763   1.397       .  A
C1762      H1767   1.084       .  S
C1763      C1764   1.412       .  A
C1763      O1768   1.372       .  S
C1764      C1765   1.407       .  A
C1765      C1766   1.405       .  A
C1765      H1769   1.083       .  S
C1766      O1770   1.371       .  S
O1768      H1772   0.992       .  S
O1770      H1771   0.992       .  S
C1773      C1774   1.404       .  A
C1774      C1775   1.401       .  A
C1774      H1779   1.083       .  S
C1775      O1780   1.371       .  S
C1776      C1777   1.405       .  A
C1777      C1778   1.404       .  A
C1777      H1781   1.083       .  S
C1778      O1782   1.372       .  S
O1780      H1784   0.992       .  S
O1782      H1783   0.992       .  S
C1785      C1786   1.403       .  A
C1786      H1791   1.084       .  S
C1787      C1788   1.408       .  A
C1787      O1792   1.372       .  S
C1788      C1789   1.405       .  A
C1789      C1790   1.401       .  A
C1789      H1793   1.084       .  S
C1790      O1794   1.372   1_655  S
O1794      H1795   0.992       .  S
C1797      C1798   1.406       .  A
C1797      C1802   1.412       .  A
C1798      C1799   1.403       .  A
C1798      H1803   1.083       .  S
C1799      C1800   1.412       .  A
C1799      O1804   1.372       .  S
C1800      C1801   1.405       .  A
C1801      C1802   1.402       .  A
C1801      H1805   1.083       .  S
C1802      O1806   1.371       .  S
O1804      H1808   0.992       .  S
O1806      H1807   0.992       .  S
C1809      C1810   1.405       .  A
C1810      C1811   1.402       .  A
C1810      H1815   1.083       .  S
C1811      O1816   1.371       .  S
C1812      C1813   1.405       .  A
C1813      C1814   1.400       .  A
C1813      H1817   1.083       .  S
C1814      O1818   1.371       .  S
O1816      H1820   0.992       .  S
O1818      H1819   0.992       .  S
C1821      C1822   1.405       .  A
C1821      C1826   1.412       .  A
C1822      C1823   1.399       .  A
C1822      H1827   1.083       .  S
C1823      C1824   1.413       .  A
C1823      O1828   1.372       .  S
C1824      C1825   1.407       .  A
C1825      C1826   1.405       .  A
C1825      H1829   1.083       .  S
C1826      O1830   1.371       .  S
O1828      H1832   0.992       .  S
O1830      H1831   0.991       .  S
C1833      C1834   1.407   1_556  A
C1833      C1838   1.411       .  A
C1834      H1839   1.083       .  S
C1835      C1836   1.410       .  A
C1835      O1840   1.372       .  S
C1836      C1837   1.406       .  A
C1837      H1841   1.083       .  S
C1838      O1842   1.371       .  S
O1840      H1844   0.992       .  S
O1842      H1843   0.992       .  S
C1845      C1850   1.409   1_556  A
C1846      C1847   1.400       .  A
C1846      H1851   1.084       .  S
C1847      C1848   1.408       .  A
C1847      O1852   1.371   1_655  S
C1849      C1850   1.395       .  A
C1849      H1853   1.084       .  S
C1850      O1854   1.372       .  S
O1852      H1856   0.992       .  S
O1854      H1855   0.992       .  S
C1857      C1858   1.407       .  A
C1857      C1862   1.418       .  A
C1858      C1859   1.399       .  A
C1858      H1863   1.077       .  S
C1859      C1860   1.413       .  A
C1859      O1864   1.372       .  S
C1860      C1861   1.400       .  A
C1861      C1862   1.398       .  A
C1861      H1865   1.083       .  S
C1862      O1866   1.372       .  S
O1864      H1868   0.992       .  S
O1866      H1867   0.992       .  S
C1869      C1870   1.407       .  A
C1869      C1874   1.408       .  A
C1870      C1871   1.396       .  A
C1870      H1875   1.080       .  S
C1871      C1872   1.402       .  A
C1871      O1876   1.370       .  S
C1872      C1873   1.406       .  A
C1873      C1874   1.403       .  A
C1873      H1877   1.084       .  S
C1874      O1878   1.371       .  S
O1876      H1880   0.992       .  S
O1878      H1879   0.992       .  S
C1881      C1882   1.399       .  A
C1881      C1886   1.413       .  A
C1882      C1883   1.402       .  A
C1882      H1887   1.083       .  S
C1883      C1884   1.420       .  A
C1883      O1888   1.372       .  S
C1884      C1885   1.407       .  A
C1885      C1886   1.403       .  A
C1885      H1889   1.078       .  S
C1886      O1890   1.373       .  S
O1888      H1892   0.991       .  S
O1890      H1891   0.992       .  S
C1893      C1894   1.397       .  A
C1893      C1898   1.409       .  A
C1894      C1895   1.401       .  A
C1894      H1899   1.084       .  S
C1895      C1896   1.416       .  A
C1895      O1900   1.371       .  S
C1896      C1897   1.403       .  A
C1897      C1898   1.400       .  A
C1897      H1901   1.083       .  S
C1898      O1902   1.372       .  S
O1900      H1904   0.992       .  S
O1902      H1903   0.992       .  S
C1905      C1906   1.410       .  A
C1905      C1910   1.415       .  A
C1906      C1907   1.407       .  A
C1906      H1911   1.079       .  S
C1907      C1908   1.411       .  A
C1907      O1912   1.371       .  S
C1908      C1909   1.399       .  A
C1909      C1910   1.390       .  A
C1909      H1913   1.084       .  S
C1910      O1914   1.374       .  S
O1912      H1916   0.992       .  S
O1914      H1915   0.992       .  S
C1917      C1918   1.394       .  A
C1917      C1922   1.409       .  A
C1918      C1919   1.400       .  A
C1918      H1923   1.084       .  S
C1919      C1920   1.422       .  A
C1919      O1924   1.372       .  S
C1920      C1921   1.408       .  A
C1921      C1922   1.401       .  A
C1921      H1925   1.082       .  S
C1922      O1926   1.371       .  S
O1924      H1928   0.992       .  S
O1926      H1927   0.992       .  S
C1929      C1930   1.413       .  A
C1929      C1934   1.415       .  A
C1930      C1931   1.403       .  A
C1930      H1935   1.077       .  S
C1931      C1932   1.408       .  A
C1931      O1936   1.372       .  S
C1932      C1933   1.404       .  A
C1933      C1934   1.397       .  A
C1933      H1937   1.083       .  S
C1934      O1938   1.373       .  S
O1936      H1940   0.992       .  S
O1938      H1939   0.992       .  S
C1941      C1942   1.403       .  A
C1941      C1946   1.415       .  A
C1942      C1943   1.401       .  A
C1942      H1947   1.083       .  S
C1943      C1944   1.412       .  A
C1943      O1948   1.372       .  S
C1944      C1945   1.397       .  A
C1945      C1946   1.398       .  A
C1945      H1949   1.084       .  S
C1946      O1950   1.369       .  S
O1948      H1952   0.992       .  S
O1950      H1951   0.992       .  S
C1953      C1954   1.400       .  A
C1953      C1958   1.408       .  A
C1954      C1955   1.397       .  A
C1954      H1959   1.084       .  S
C1955      C1956   1.406       .  A
C1955      O1960   1.372       .  S
C1956      C1957   1.395       .  A
C1957      C1958   1.402       .  A
C1957      H1961   1.084       .  S
C1958      O1962   1.376       .  S
O1960      H1964   0.991       .  S
O1962      H1963   0.992       .  S
C1965      C1966   1.407       .  A
C1965      C1970   1.420       .  A
C1966      C1967   1.396       .  A
C1966      H1971   1.076       .  S
C1967      C1968   1.412       .  A
C1967      O1972   1.372       .  S
C1968      C1969   1.401       .  A
C1969      C1970   1.404       .  A
C1969      H1973   1.083       .  S
C1970      O1974   1.372       .  S
O1972      H1976   0.992       .  S
O1974      H1975   0.992       .  S
C1977      C1978   1.395       .  A
C1977      C1982   1.410       .  A
C1978      C1979   1.400       .  A
C1978      H1983   1.084       .  S
C1979      C1980   1.420       .  A
C1979      O1984   1.368       .  S
C1980      C1981   1.408       .  A
C1981      C1982   1.404       .  A
C1981      H1985   1.083       .  S
C1982      O1986   1.372       .  S
O1984      H1988   0.992       .  S
O1986      H1987   0.992       .  S
C1989      C1990   1.400       .  A
C1989      C1994   1.413       .  A
C1990      C1991   1.400       .  A
C1990      H1995   1.084       .  S
C1991      C1992   1.418       .  A
C1991      O1996   1.372       .  S
C1992      C1993   1.409       .  A
C1993      C1994   1.404       .  A
C1993      H1997   1.078       .  S
C1994      O1998   1.372       .  S
O1996      H2000   0.992       .  S
O1998      H1999   0.992       .  S
C2001      C2002   1.404       .  A
C2001      C2006   1.409       .  A
C2002      C2003   1.397       .  A
C2002      H2007   1.080       .  S
C2003      C2004   1.407       .  A
C2003      O2008   1.372       .  S
C2004      C2005   1.406       .  A
C2005      C2006   1.403       .  A
C2005      H2009   1.083       .  S
C2006      O2010   1.372       .  S
O2008      H2012   0.992       .  S
O2010      H2011   0.991       .  S
C2013      C2014   1.404       .  A
C2013      C2018   1.407       .  A
C2014      C2015   1.400       .  A
C2014      H2019   1.083       .  S
C2015      C2016   1.411       .  A
C2015      O2020   1.371       .  S
C2016      C2017   1.405       .  A
C2017      C2018   1.394       .  A
C2017      H2021   1.077       .  S
C2018      O2022   1.372       .  S
O2020      H2024   0.992       .  S
O2022      H2023   0.992       .  S
C2025      C2026   1.414       .  A
C2025      C2030   1.414       .  A
C2026      C2027   1.403       .  A
C2026      H2031   1.078       .  S
C2027      C2028   1.407       .  A
C2027      O2032   1.372       .  S
C2028      C2029   1.405       .  A
C2029      C2030   1.398       .  A
C2029      H2033   1.083       .  S
C2030      O2034   1.372       .  S
O2032      H2036   0.992       .  S
O2034      H2035   0.992       .  S
C2037      C2038   1.402       .  A
C2037      C2042   1.414       .  A
C2038      C2039   1.402       .  A
C2038      H2043   1.083       .  S
C2039      C2040   1.414       .  A
C2039      O2044   1.372       .  S
C2040      C2041   1.395       .  A
C2041      C2042   1.396       .  A
C2041      H2045   1.080       .  S
C2042      O2046   1.371       .  S
O2044      H2048   0.992       .  S
O2046      H2047   0.992       .  S
C2049      C2050   1.403       .  A
C2049      C2054   1.414       .  A
C2050      C2051   1.401       .  A
C2050      H2055   1.080       .  S
C2051      C2052   1.409       .  A
C2051      O2056   1.373       .  S
C2052      C2053   1.402       .  A
C2053      C2054   1.402       .  A
C2053      H2057   1.084       .  S
C2054      O2058   1.371       .  S
O2056      H2060   0.992       .  S
O2058      H2059   0.992       .  S
C2061      C2062   1.409       .  A
C2061      C2066   1.413       .  A
C2062      C2063   1.396       .  A
C2062      H2067   1.080       .  S
C2063      C2064   1.402       .  A
C2063      O2068   1.372       .  S
C2064      C2065   1.404       .  A
C2065      C2066   1.401       .  A
C2065      H2069   1.084       .  S
C2066      O2070   1.371       .  S
O2068      H2072   0.991       .  S
O2070      H2071   0.992       .  S
C2073      C2074   1.401       .  A
C2073      C2078   1.414       .  A
C2074      C2075   1.404       .  A
C2074      H2079   1.083       .  S
C2075      C2076   1.419       .  A
C2075      O2080   1.373       .  S
C2076      C2077   1.406       .  A
C2077      C2078   1.399       .  A
C2077      H2081   1.076       .  S
C2078      O2082   1.373       .  S
O2080      H2084   0.992       .  S
O2082      H2083   0.992       .  S
C2085      C2086   1.404       .  A
C2085      C2090   1.404       .  A
C2086      C2087   1.402       .  A
C2086      H2091   1.084       .  S
C2087      C2088   1.407       .  A
C2087      O2092   1.372       .  S
C2088      C2089   1.402       .  A
C2089      C2090   1.399       .  A
C2089      H2093   1.081       .  S
C2090      O2094   1.371       .  S
O2092      H2096   0.992       .  S
O2094      H2095   0.992       .  S
C2097      C2098   1.399       .  A
C2097      C2102   1.414       .  A
C2098      C2099   1.399       .  A
C2098      H2103   1.083       .  S
C2099      C2100   1.419       .  A
C2099      O2104   1.372       .  S
C2100      C2101   1.406       .  A
C2101      C2102   1.403       .  A
C2101      H2105   1.078       .  S
C2102      O2106   1.372       .  S
O2104      H2108   0.992       .  S
O2106      H2107   0.992       .  S
C2109      C2110   1.405       .  A
C2109      C2114   1.417       .  A
C2110      C2111   1.403       .  A
C2110      H2115   1.083       .  S
C2111      C2112   1.411       .  A
C2111      O2116   1.371       .  S
C2112      C2113   1.393       .  A
C2113      C2114   1.397       .  A
C2113      H2117   1.084       .  S
C2114      O2118   1.367       .  S
O2116      H2120   0.992       .  S
O2118      H2119   0.992       .  S
C2121      C2122   1.407       .  A
C2121      C2126   1.419       .  A
C2122      C2123   1.397       .  A
C2122      H2127   1.076       .  S
C2123      C2124   1.413       .  A
C2123      O2128   1.372       .  S
C2124      C2125   1.402       .  A
C2125      C2126   1.406       .  A
C2125      H2129   1.083       .  S
C2126      O2130   1.373       .  S
O2128      H2132   0.992       .  S
O2130      H2131   0.992       .  S
C2133      C2134   1.413       .  A
C2133      C2138   1.417       .  A
C2134      C2135   1.409       .  A
C2134      H2139   1.080       .  S
C2135      C2136   1.411       .  A
C2135      O2140   1.371       .  S
C2136      C2137   1.403       .  A
C2137      C2138   1.399       .  A
C2137      H2141   1.083       .  S
C2138      O2142   1.372       .  S
O2140      H2144   0.992       .  S
O2142      H2143   0.992       .  S
C2145      C2146   1.405       .  A
C2145      C2150   1.401       .  A
C2146      C2147   1.401       .  A
C2146      H2151   1.084       .  S
C2147      C2148   1.403       .  A
C2147      O2152   1.371       .  S
C2148      C2149   1.403       .  A
C2149      C2150   1.398       .  A
C2149      H2153   1.082       .  S
C2150      O2154   1.371       .  S
O2152      H2156   0.991       .  S
O2154      H2155   0.992       .  S
C2157      C2158   1.407       .  A
C2157      C2162   1.410       .  A
C2158      C2159   1.399       .  A
C2158      H2163   1.083       .  S
C2159      C2160   1.407       .  A
C2159      O2164   1.372       .  S
C2160      C2161   1.404       .  A
C2161      C2162   1.402       .  A
C2161      H2165   1.084       .  S
C2162      O2166   1.372       .  S
O2164      H2168   0.991       .  S
O2166      H2167   0.992       .  S
C2169      C2170   1.407       .  A
C2169      C2174   1.401       .  A
C2170      C2171   1.407       .  A
C2170      H2175   1.083       .  S
C2171      C2172   1.416       .  A
C2171      O2176   1.370       .  S
C2172      C2173   1.414       .  A
C2173      C2174   1.398       .  A
C2173      H2177   1.076       .  S
C2174      O2178   1.374       .  S
O2176      H2180   0.992       .  S
O2178      H2179   0.992       .  S
C2181      C2182   1.408       .  A
C2181      C2186   1.419       .  A
C2182      C2183   1.400       .  A
C2182      H2187   1.077       .  S
C2183      C2184   1.411       .  A
C2183      O2188   1.372       .  S
C2184      C2185   1.400       .  A
C2185      C2186   1.402       .  A
C2185      H2189   1.083       .  S
C2186      O2190   1.372       .  S
O2188      H2192   0.992       .  S
O2190      H2191   0.991       .  S
C2193      C2194   1.399       .  A
C2193      C2198   1.412       .  A
C2194      C2195   1.398       .  A
C2194      H2199   1.084       .  S
C2195      C2196   1.418       .  A
C2195      O2200   1.373       .  S
C2196      C2197   1.407       .  A
C2197      C2198   1.399       .  A
C2197      H2201   1.078       .  S
C2198      O2202   1.372       .  S
O2200      H2204   0.992       .  S
O2202      H2203   0.992       .  S
C2205      C2206   1.405       .  A
C2205      C2210   1.403       .  A
C2206      C2207   1.400       .  A
C2206      H2211   1.084       .  S
C2207      C2208   1.407       .  A
C2207      O2212   1.371       .  S
C2208      C2209   1.406       .  A
C2209      C2210   1.395       .  A
C2209      H2213   1.083       .  S
C2210      O2214   1.372       .  S
O2212      H2216   0.992       .  S
O2214      H2215   0.992       .  S
C2217      C2218   1.405       .  A
C2217      C2222   1.401       .  A
C2218      C2219   1.398       .  A
C2218      H2223   1.084       .  S
C2219      C2220   1.404       .  A
C2219      O2224   1.372       .  S
C2220      C2221   1.407       .  A
C2221      C2222   1.397       .  A
C2221      H2225   1.083       .  S
C2222      O2226   1.372       .  S
O2224      H2228   0.992       .  S
O2226      H2227   0.992       .  S
C2229      C2230   1.393       .  A
C2229      C2234   1.411       .  A
C2230      C2231   1.397       .  A
C2230      H2235   1.084       .  S
C2231      C2232   1.417       .  A
C2231      O2236   1.368       .  S
C2232      C2233   1.405       .  A
C2233      C2234   1.406       .  A
C2233      H2237   1.083       .  S
C2234      O2238   1.371       .  S
O2236      H2240   0.992       .  S
O2238      H2239   0.992       .  S
C2241      C2242   1.400       .  A
C2241      C2246   1.411       .  A
C2242      C2243   1.394       .  A
C2242      H2247   1.084       .  S
C2243      C2244   1.418       .  A
C2243      O2248   1.373       .  S
C2244      C2245   1.410       .  A
C2245      C2246   1.408       .  A
C2245      H2249   1.079       .  S
C2246      O2250   1.371       .  S
O2248      H2252   0.992       .  S
O2250      H2251   0.992       .  S
C2253      C2254   1.403       .  A
C2253      C2258   1.418       .  A
C2254      C2255   1.397       .  A
C2254      H2259   1.076       .  S
C2255      C2256   1.409       .  A
C2255      O2260   1.371       .  S
C2256      C2257   1.402       .  A
C2257      C2258   1.405       .  A
C2257      H2261   1.083       .  S
C2258      O2262   1.372       .  S
O2260      H2264   0.992       .  S
O2262      H2263   0.993       .  S
C2265      C2266   1.413       .  A
C2265      C2270   1.416       .  A
C2266      C2267   1.408       .  A
C2266      H2271   1.079       .  S
C2267      C2268   1.411       .  A
C2267      O2272   1.371       .  S
C2268      C2269   1.401       .  A
C2269      C2270   1.392       .  A
C2269      H2273   1.083       .  S
C2270      O2274   1.373       .  S
O2272      H2276   0.992       .  S
O2274      H2275   0.992       .  S
C2277      C2278   1.403       .  A
C2277      C2282   1.405       .  A
C2278      C2279   1.399       .  A
C2278      H2283   1.084       .  S
C2279      C2280   1.406       .  A
C2279      O2284   1.371       .  S
C2280      C2281   1.402       .  A
C2281      C2282   1.404       .  A
C2281      H2285   1.084       .  S
C2282      O2286   1.375       .  S
O2284      H2288   0.992       .  S
O2286      H2287   0.992       .  S
C2289      C2290   1.408       .  A
C2289      C2294   1.411       .  A
C2290      C2291   1.397       .  A
C2290      H2295   1.083       .  S
C2291      C2292   1.408       .  A
C2291      O2296   1.372       .  S
C2292      C2293   1.404       .  A
C2293      C2294   1.401       .  A
C2293      H2297   1.084       .  S
C2294      O2298   1.372       .  S
O2296      H2300   0.992       .  S
O2298      H2299   0.992       .  S
C2301      C2302   1.408       .  A
C2301      C2306   1.420       .  A
C2302      C2303   1.404       .  A
C2302      H2307   1.083       .  S
C2303      C2304   1.409       .  A
C2303      O2308   1.372       .  S
C2304      C2305   1.396       .  A
C2305      C2306   1.401       .  A
C2305      H2309   1.084       .  S
C2306      O2310   1.371       .  S
O2308      H2312   0.992       .  S
O2310      H2311   0.992       .  S
C2313      C2314   1.403       .  A
C2313      C2318   1.409       .  A
C2314      C2315   1.398       .  A
C2314      H2319   1.083       .  S
C2315      C2316   1.417       .  A
C2315      O2320   1.373       .  S
C2316      C2317   1.411       .  A
C2317      C2318   1.404       .  A
C2317      H2321   1.078       .  S
C2318      O2322   1.371       .  S
O2320      H2324   0.992       .  S
O2322      H2323   0.992       .  S
C2325      C2326   1.402       .  A
C2325      C2330   1.414       .  A
C2326      C2327   1.398       .  A
C2326      H2331   1.083       .  S
C2327      C2328   1.410       .  A
C2327      O2332   1.372       .  S
C2328      C2329   1.396       .  A
C2329      C2330   1.398       .  A
C2329      H2333   1.084       .  S
C2330      O2334   1.370       .  S
O2332      H2336   0.992       .  S
O2334      H2335   0.992       .  S
