geometry optimzed in LAMMPS
_audit_creation_date              2020-11-30 
_audit_creation_method            'lammps2cif' 
_symmetry_space_group_name_H-M    'P1' 
_symmetry_Int_Tables_number       1 
_symmetry_cell_setting            triclinic 
loop_ 
_symmetry_equiv_pos_as_xyz 
  x,y,z 
_cell_length_a                    55.96527966 
_cell_length_b                    56.133010596716105 
_cell_length_c                    39.97955171786192 
_cell_angle_alpha                 89.90759220386113 
_cell_angle_beta                  90.26353479016245 
_cell_angle_gamma                 121.1080183124375 
loop_ 
_atom_site_label 
_atom_site_type_symbol 
_atom_site_fract_x 
_atom_site_fract_y 
_atom_site_fract_z 
_atom_site_charge 
C1          C  0.68613364  0.18435478  0.28345456     0.88500
C2          C  0.67773176  0.18604446  0.31910485    -0.51700
C3          C  0.67430631  0.20801163  0.32498910     0.11500
C4          C  0.67935086  0.22640270  0.29357978     0.22400
C5          C  0.66342939  0.18374944  0.26128435    -0.52400
C6          C  0.65958361  0.20574787  0.26652558     0.11600
C7          C  0.71226417  0.21252393  0.27671614    -0.52000
C8          C  0.70879378  0.23460168  0.28127721     0.12100
H9          H  0.67432994  0.17076950  0.33812123     0.16600
H10         H  0.67654505  0.24434027  0.29796943     0.02400
H11         H  0.65202032  0.16757938  0.24281147     0.17000
H12         H  0.73168501  0.21482463  0.26784949     0.16700
C13         C  0.80659955  0.30293328  0.20716728     0.88500
C14         C  0.79775535  0.30450140  0.17153655    -0.51700
C15         C  0.77836129  0.31225694  0.16924628     0.11500
C16         C  0.76905535  0.31711065  0.20396609     0.22400
C17         C  0.81627105  0.33149738  0.22251595    -0.52400
C18         C  0.79646830  0.33879560  0.22158015     0.11600
C19         C  0.77969347  0.28287843  0.22544239    -0.52000
C20         C  0.75992111  0.29025862  0.22431886     0.12100
H21         H  0.80777725  0.30192498  0.14981250     0.16600
H22         H  0.75305416  0.32314112  0.20250750     0.02400
H23         H  0.83653689  0.34428862  0.23436656     0.17000
H24         H  0.77660154  0.26445429  0.23837665     0.16700
In25       In  0.75625825  0.06917005  0.24103994     1.36900
C26         C  0.74972492  0.05677609  0.17672490     0.79600
O27         O  0.79644378  0.10647915  0.22619370    -0.58800
O28         O  0.79312885  0.09205416  0.27618482    -0.49700
C29         C  0.72996495  0.09530129  0.25933590     0.72300
O30         O  0.73624858  0.09396380  0.22954901    -0.44600
C31         C  0.73828074  0.01775292  0.26256375     0.77000
O32         O  0.73006607  0.05428668  0.19455445    -0.56400
O33         O  0.76347365  0.03449651  0.25558683    -0.46500
O34         O  0.77247870  0.06497888  0.19178719    -0.52900
C35         C  0.80785280  0.10983442  0.25430739     0.87200
O36         O  0.73678906  0.08299120  0.28028618    -0.54800
O37         O  0.72277260  0.02781452  0.26099079    -0.58100
In38       In  0.92112823  0.23593128  0.26587691     1.36900
C39         C  0.93389029  0.24528543  0.32982104     0.79600
O40         O  0.88393141  0.19880795  0.28812896    -0.58800
O41         O  0.89750940  0.19407578  0.24037394    -0.49700
C42         C  0.89410488  0.25831669  0.23846972     0.72300
O43         O  0.90161122  0.26186618  0.26864465    -0.44600
C44         C  0.97254118  0.25758212  0.24190061     0.77000
O45         O  0.92629537  0.25923933  0.31303651    -0.56400
O46         O  0.95727433  0.23207698  0.24834339    -0.46500
O47         O  0.93581645  0.22704134  0.31381864    -0.52900
C48         C  0.88015857  0.18307417  0.26383986     0.87200
O49         O  0.90108795  0.24391335  0.22158934    -0.54800
O50         O  0.96102564  0.27159069  0.24553020    -0.58100
In51       In  0.36221301  0.06954961  0.26119827     1.36900
C52         C  0.35605729  0.06025082  0.32628038     0.79600
O53         O  0.36978204  0.11096291  0.27766122    -0.58800
O54         O  0.34245012  0.09157498  0.23631657    -0.49700
C55         C  0.41167193  0.09276637  0.23174577     0.72300
O56         O  0.40815657  0.08697141  0.26240633    -0.44600
C57         C  0.33175927  0.01695706  0.24019653     0.77000
O58         O  0.37813107  0.06615143  0.31118498    -0.56400
O59         O  0.32206849  0.03284747  0.24069089    -0.46500
O60         O  0.33667511  0.05828992  0.30810743    -0.52900
C61         C  0.35425058  0.11223555  0.25583544     0.87200
O62         O  0.38970359  0.08602478  0.21539853    -0.54800
O63         O  0.35697333  0.02825610  0.24857564    -0.58100
In64       In  0.36517983  0.23643845  0.24185118     1.36900
C65         C  0.35549181  0.18507671  0.24856783     0.79600
O66         O  0.33492091  0.22119818  0.19861696    -0.58800
O67         O  0.37753889  0.25112459  0.18916177    -0.49700
C68         C  0.33672958  0.25836676  0.26684363     0.72300
O69         O  0.32739555  0.23260533  0.26753012    -0.44600
C70         C  0.41713513  0.26413471  0.26576954     0.77000
O71         O  0.34652084  0.19545273  0.26944632    -0.56400
O72         O  0.41066348  0.26886372  0.23738691    -0.46500
O73         O  0.36907087  0.20074829  0.22461926    -0.52900
C74         C  0.35333932  0.23581722  0.17745152     0.87200
O75         O  0.36104718  0.27290153  0.25553544    -0.54800
O76         O  0.39689585  0.24622724  0.28290298    -0.58100
C77         C  0.54643070  0.17795099  0.20201859     0.88500
C78         C  0.55681634  0.18930048  0.16715065    -0.51700
C79         C  0.58389811  0.21079125  0.16600016     0.11500
C80         C  0.59801464  0.21934728  0.20108778     0.22400
C81         C  0.56727701  0.17044657  0.21587060    -0.52400
C82         C  0.59434651  0.19220237  0.21605327     0.11600
C83         C  0.55126684  0.20289877  0.22249759    -0.52000
C84         C  0.57830956  0.22466169  0.22272714     0.12100
H85         H  0.54418980  0.17985543  0.14501735     0.16600
H86         H  0.61994382  0.23700119  0.20049454     0.02400
H87         H  0.56106398  0.15003727  0.22583717     0.17000
H88         H  0.53445454  0.20324010  0.23552050     0.16700
C89         C  0.54863742  0.29904701  0.29289989     0.88500
C90         C  0.55928728  0.30274665  0.32876806    -0.51700
C91         C  0.58376680  0.30308760  0.33226239     0.11500
C92         C  0.59559447  0.30000811  0.29848119     0.22400
C93         C  0.57249573  0.32263551  0.27323418    -0.52400
C94         C  0.59730135  0.32319129  0.27564207     0.11600
C95         C  0.54704715  0.27253610  0.28049823    -0.52000
C96         C  0.57162870  0.27308511  0.28287574     0.12100
H97         H  0.54755196  0.30342506  0.34990434     0.16600
H98         H  0.61545320  0.30016336  0.30091411     0.02400
H99         H  0.56962658  0.33745948  0.25907768     0.17000
H100        H  0.52819325  0.25496046  0.27008058     0.16700
C101        C  0.68275306  0.43581550  0.22107491     0.88500
C102        C  0.68723858  0.43155790  0.18453847    -0.51700
C103        C  0.68344990  0.40606409  0.17763141     0.11500
C104        C  0.67581350  0.38699665  0.20878414     0.22400
C105        C  0.65351555  0.41182120  0.22947303    -0.52400
C106        C  0.64992058  0.38616598  0.22370430     0.11600
C107        C  0.70258304  0.42990191  0.24083411    -0.52000
C108        C  0.69907252  0.40431198  0.23455582     0.12100
H109        H  0.69344989  0.44765360  0.16570679     0.16600
H110        H  0.67290206  0.36623286  0.20352248     0.02400
H111        H  0.63744997  0.41475494  0.24033061     0.17000
H112        H  0.71870556  0.44509891  0.25738694     0.16700
In113      In  0.75529156  0.62216935  0.27185965     1.36900
C114        C  0.80734256  0.63390364  0.26219252     0.79600
O115        O  0.77078661  0.65012221  0.31647695    -0.58800
O116        O  0.73488427  0.60937629  0.32156992    -0.49700
C117        C  0.73287449  0.65145295  0.25082971     0.72300
O118        O  0.75841597  0.66000464  0.24698774    -0.44600
C119        C  0.72847425  0.56951422  0.25162110     0.77000
O120        O  0.79344719  0.63689868  0.23936025    -0.56400
O121        O  0.73423004  0.57653910  0.28176432    -0.46500
O122        O  0.79503790  0.62577788  0.28977252    -0.52900
C123        C  0.75185665  0.63230191  0.33512777     0.87200
O124        O  0.71865520  0.62731138  0.26265372    -0.54800
O125        O  0.73592157  0.58936181  0.23135029    -0.58100
In126      In  0.92236766  0.62749615  0.23758302     1.36900
C127        C  0.93447901  0.63500689  0.17314768     0.79600
O128        O  0.88522885  0.62943254  0.22032103    -0.58800
O129        O  0.89762151  0.63951377  0.27104955    -0.49700
C130        C  0.89562760  0.57447773  0.25563120     0.72300
O131        O  0.90015463  0.58216431  0.22561920    -0.44600
C132        C  0.97390985  0.65806524  0.26264641     0.77000
O133        O  0.93193237  0.61445685  0.18907378    -0.56400
O134        O  0.95845958  0.66797081  0.25802475    -0.46500
O135        O  0.93226033  0.65255187  0.19039181    -0.52900
C136        C  0.88048895  0.63625927  0.24829205     0.87200
O137        O  0.90504950  0.59385428  0.27690312    -0.54800
O138        O  0.96253375  0.63251779  0.25657898    -0.58100
C139        C  0.80752327  0.43993544  0.28696659     0.88500
C140        C  0.80711235  0.43144322  0.32322524    -0.51700
C141        C  0.78550543  0.40545379  0.33076476     0.11500
C142        C  0.76612665  0.39012386  0.30051712     0.22400
C143        C  0.80779026  0.41721907  0.26622195    -0.52400
C144        C  0.78605162  0.39089098  0.27316830     0.11600
C145        C  0.77895695  0.43631336  0.28060658    -0.52000
C146        C  0.75722586  0.41024943  0.28723789     0.12100
H147        H  0.82293939  0.44474569  0.34136002     0.16600
H148        H  0.74843160  0.36893015  0.30631145     0.02400
H149        H  0.82333273  0.42188122  0.24714759     0.17000
H150        H  0.77608335  0.45275676  0.27082833     0.16700
C151        C  0.68487947  0.18334213  0.45465868     0.88500
C152        C  0.71143377  0.20894945  0.46758367    -0.51700
C153        C  0.71079555  0.23282274  0.46600894     0.11500
C154        C  0.68391564  0.22918569  0.45043615     0.22400
C155        C  0.66123807  0.18253218  0.47466564    -0.52400
C156        C  0.66067499  0.20675349  0.47282614     0.11600
C157        C  0.68114383  0.19056464  0.41904031    -0.52000
C158        C  0.68076401  0.21464577  0.41627382     0.12100
H159        H  0.72890477  0.20814426  0.47826166     0.16600
H160        H  0.68384465  0.24889915  0.44864078     0.02400
H161        H  0.64084595  0.15058493  0.98045873     0.17000
H162        H  0.68041453  0.17839740  0.39756772     0.16700
C163        C  0.80460471  0.30925088  0.03624625     0.88500
C164        C  0.77959661  0.28135349  0.02552899    -0.51700
C165        C  0.75465976  0.27975468  0.02865796     0.11500
C166        C  0.75688419  0.30620968  0.04326342     0.22400
C167        C  0.80240143  0.33100258  0.01571384    -0.52400
C168        C  0.77723945  0.32964260  0.01904496     0.11600
C169        C  0.79863462  0.31349196  0.07220149    -0.52000
C170        C  0.77344200  0.31145712  0.07657709     0.12100
H171        H  0.78144412  0.26431975  0.01570408     0.16600
H172        H  0.73639219  0.30461911  0.04630063     0.02400
H173        H  0.82558398  0.35410464  0.51435283     0.17000
H174        H  0.81207423  0.31525701  0.09290258     0.16700
In175      In  0.75255645  0.06692393  0.01156917     1.36900
C176        C  0.74739052  0.05522428  0.07597168     0.79600
O177        O  0.71695029  0.02611380  0.99333387    -0.58800
O178        O  0.76213169  0.03824150  0.48722548    -0.49700
C179        C  0.72528613  0.09305386  0.48151243     0.72300
O180        O  0.72453673  0.08415069  0.01445765    -0.44600
C181        C  0.80461684  0.11661356  0.50181111     0.77000
O182        O  0.73116065  0.06078071  0.06059670    -0.56400
O183        O  0.79561943  0.09729344  0.48044978    -0.46500
O184        O  0.76574639  0.05476337  0.05833675    -0.52900
C185        C  0.73675403  0.02086977  0.48167102     0.87200
O186        O  0.74013137  0.08755181  0.46315546    -0.54800
O187        O  0.78816413  0.10644492  0.03172500    -0.58100
In188      In  0.91877168  0.24487648  0.49373435     1.36900
C189        C  0.93249390  0.24903124  0.42998444     0.79600
O190        O  0.96051292  0.27979158  0.51171638    -0.58800
O191        O  0.94957028  0.23539002  0.01719581    -0.49700
C192        C  0.89285601  0.26703770  0.01084686     0.72300
O193        O  0.90453529  0.27540568  0.48765446    -0.44600
C194        C  0.87577227  0.19275105  0.49750322     0.77000
O195        O  0.92576833  0.26494279  0.44349753    -0.56400
O196        O  0.89205868  0.19954191  0.02157895    -0.46500
O197        O  0.93275351  0.23131506  0.44902445    -0.52900
C198        C  0.96751332  0.26079333  0.01340730     0.87200
O199        O  0.90275169  0.25712248  0.03117629    -0.54800
O200        O  0.87900489  0.20875585  0.47363227    -0.58100
In201      In  0.35801506  0.22986240  0.01237116     1.36900
C202        C  0.35441600  0.18462599  0.50577994     0.79600
O203        O  0.39484479  0.25092805  0.47143768    -0.58800
O204        O  0.40328607  0.25754638  0.02425266    -0.49700
C205        C  0.33393872  0.25790413  0.48960685     0.72300
O206        O  0.32357670  0.23195538  0.49120941    -0.44600
C207        C  0.34884764  0.23221271  0.07679662     0.77000
O208        O  0.34731739  0.19570194  0.48338037    -0.56400
O209        O  0.36836855  0.25227235  0.06123364    -0.46500
O210        O  0.36197799  0.19355776  0.02721891    -0.52900
C211        C  0.41522581  0.26389528  0.49128555     0.87200
O212        O  0.35161873  0.26380516  0.99293137    -0.54800
O213        O  0.33318484  0.21105520  0.05931611    -0.58100
In214      In  0.36911459  0.07354182  0.49156590     1.36900
C215        C  0.35937403  0.06259684  0.42714073     0.79600
O216        O  0.36407503  0.03150821  0.49703411    -0.58800
O217        O  0.32337448  0.03261827  0.99358235    -0.49700
C218        C  0.41611001  0.09212826  0.99665041     0.72300
O219        O  0.41569206  0.09561322  0.48879608    -0.44600
C220        C  0.35848633  0.11450886  0.49790205     0.77000
O221        O  0.38244093  0.06929854  0.44053825    -0.56400
O222        O  0.35022810  0.09208990  0.00636674    -0.46500
O223        O  0.34099629  0.06103384  0.44666465    -0.52900
C224        C  0.33275725  0.01667990  0.99743254     0.87200
O225        O  0.39558656  0.08399656  0.01596485    -0.54800
O226        O  0.37371604  0.11393804  0.47529867    -0.58100
C227        C  0.54889235  0.18199950  0.03262923     0.88500
C228        C  0.55231659  0.20790817  0.01541781    -0.51700
C229        C  0.57805583  0.23122538  0.01992937     0.11500
C230        C  0.59780277  0.22635905  0.04194432     0.22400
C231        C  0.57267793  0.17903585  0.01933428    -0.52400
C232        C  0.59858288  0.20256981  0.02310800     0.11600
C233        C  0.55576253  0.19000798  0.06920582    -0.52000
C234        C  0.58124544  0.21323196  0.07468716     0.12100
H235        H  0.53570401  0.20781012  0.00112681     0.16600
H236        H  0.61856899  0.24541198  0.04588645     0.02400
H237        H  0.56630777  0.15416796  0.52226480     0.17000
H238        H  0.54067603  0.17926012  0.08889738     0.16700
C239        C  0.54758846  0.30255933  0.46332600     0.88500
C240        C  0.54655493  0.27547637  0.47115239    -0.51700
C241        C  0.57146398  0.27693327  0.46767965     0.11500
C242        C  0.59532768  0.30558674  0.45528351     0.22400
C243        C  0.57092436  0.32448551  0.48558960    -0.52400
C244        C  0.59629713  0.32643707  0.48150986     0.11600
C245        C  0.55872723  0.31004112  0.42782512    -0.52000
C246        C  0.58355996  0.31148693  0.42302246     0.12100
H247        H  0.52788547  0.25692071  0.48009536     0.16600
H248        H  0.61557730  0.30675521  0.45173173     0.02400
H249        H  0.56667565  0.34072260  0.00784934     0.17000
H250        H  0.54797791  0.31423265  0.40811213     0.16700
C251        C  0.68508241  0.44278721  0.04942967     0.88500
C252        C  0.70732600  0.43833713  0.03392234    -0.51700
C253        C  0.70113086  0.41142888  0.03486579     0.11500
C254        C  0.67285438  0.39117524  0.05175556     0.22400
C255        C  0.65798176  0.42257205  0.03133586    -0.52400
C256        C  0.65141078  0.39552768  0.03210129     0.11600
C257        C  0.68141273  0.43150116  0.08490755    -0.52000
C258        C  0.67506452  0.40452009  0.08661032     0.12100
H259        H  0.72668251  0.45515884  0.02358267     0.16600
H260        H  0.66768756  0.36925025  0.05294818     0.02400
H261        H  0.64114654  0.42234296  0.51861918     0.17000
H262        H  0.68309335  0.44364712  0.10685386     0.16700
In263      In  0.75582035  0.62803908  0.49870814     1.36900
C264        C  0.80614193  0.63691926  0.99598279     0.79600
O265        O  0.74386886  0.59726472  0.03543606    -0.58800
O266        O  0.73218615  0.58223638  0.48870415    -0.49700
C267        C  0.73187067  0.65539003  0.01140560     0.72300
O268        O  0.75785754  0.66559446  0.00993017    -0.44600
C269        C  0.75061165  0.63582677  0.43496416     0.77000
O270        O  0.79495771  0.64329556  0.01885020    -0.56400
O271        O  0.73391486  0.61354149  0.44979364    -0.46500
O272        O  0.79461421  0.63203512  0.47740857    -0.52900
C273        C  0.72820124  0.57561632  0.01865217     0.87200
O274        O  0.71898660  0.63152165  0.51343611    -0.54800
O275        O  0.76933491  0.65473983  0.45293779    -0.58100
In276      In  0.91707690  0.62248655  0.00783571     1.36900
C277        C  0.92998218  0.63154602  0.07228868     0.79600
O278        O  0.95707764  0.62416033  0.99627711    -0.58800
O279        O  0.96123321  0.67210513  0.48871138    -0.49700
C280        C  0.89833481  0.58281052  0.47944125     0.72300
O281        O  0.89704540  0.57623880  0.01096394    -0.44600
C282        C  0.88193693  0.64248423  0.50576930     0.77000
O283        O  0.91884443  0.60772450  0.05927152    -0.56400
O284        O  0.90205592  0.65366028  0.48544232    -0.46500
O285        O  0.93471441  0.65097161  0.05245848    -0.52900
C286        C  0.97601719  0.66128563  0.48557774     0.87200
O287        O  0.90218730  0.60416309  0.46399818    -0.54800
O288        O  0.87852024  0.62076242  0.02615936    -0.58100
C289        C  0.80795729  0.44853953  0.45516203     0.88500
C290        C  0.78091498  0.44439854  0.46974611    -0.51700
C291        C  0.75951126  0.41736720  0.47024908     0.11500
C292        C  0.76722995  0.39668879  0.45587234     0.22400
C293        C  0.81464347  0.42972993  0.47546528    -0.52400
C294        C  0.79348499  0.40256327  0.47632695     0.11600
C295        C  0.80000305  0.43541893  0.42055618    -0.52000
C296        C  0.77864941  0.40826008  0.42042034     0.12100
H297        H  0.77854673  0.46152290  0.47793980     0.16600
H298        H  0.74979677  0.37468164  0.45589256     0.02400
H299        H  0.82388972  0.42451712  0.97603723     0.17000
H300        H  0.80968830  0.44702578  0.39787747     0.16700
In301      In  0.10480965  0.32638822  0.49286546     1.36900
C302        C  0.09272044  0.31575022  0.42894571     0.79600
O303        O  0.14443133  0.32983626  0.47589645    -0.58800
O304        O  0.12605698  0.31146483  0.02511315    -0.49700
C305        C  0.13114835  0.37873219  0.01357203     0.72300
O306        O  0.12408944  0.37221909  0.48672860    -0.44600
C307        C  0.05086890  0.29906550  0.01487963     0.77000
O308        O  0.10049675  0.33916899  0.44162160    -0.56400
O309        O  0.06560957  0.28807698  0.01419321    -0.46500
O310        O  0.09042003  0.29735233  0.44898521    -0.52900
C311        C  0.14183032  0.31303177  0.00166743     0.87200
O312        O  0.11893774  0.35868834  0.03376431    -0.54800
O313        O  0.06532649  0.32496260  0.50631026    -0.58100
In314      In  0.26254888  0.31686739  0.01542860     1.36900
C315        C  0.21837141  0.31677129  0.50946619     0.79600
O316        O  0.24739879  0.29118052  0.06210198    -0.58800
O317        O  0.28584912  0.33005976  0.06376811    -0.49700
C318        C  0.29294292  0.29919919  0.49296762     0.72300
O319        O  0.26716766  0.29009897  0.49078744    -0.44600
C320        C  0.29833149  0.38015621  0.49626396     0.77000
O321        O  0.23062589  0.31165159  0.48667707    -0.56400
O322        O  0.29007624  0.36253232  0.02364628    -0.46500
O323        O  0.22622672  0.31829510  0.03563201    -0.52900
C324        C  0.26778141  0.30888345  0.07935037     0.87200
O325        O  0.29769731  0.31290149  0.99523342    -0.54800
O326        O  0.28548003  0.36010057  0.47615741    -0.58100
C327        C  0.22392707  0.51232752  0.04334258     0.88500
C328        C  0.22536225  0.52235178  0.07904481    -0.51700
C329        C  0.24791650  0.54803709  0.08558262     0.11500
C330        C  0.26710169  0.56166532  0.05471410     0.22400
C331        C  0.22469884  0.53490522  0.02109136    -0.52400
C332        C  0.24737599  0.56101632  0.02689698     0.11600
C333        C  0.25170442  0.51419977  0.03741636    -0.52000
C334        C  0.27437195  0.54002797  0.04270233     0.12100
H335        H  0.20962591  0.51017488  0.09769547     0.16600
H336        H  0.28555597  0.58264885  0.05955412     0.02400
H337        H  0.19549720  0.52512866  0.52238030     0.17000
H338        H  0.25334912  0.49689183  0.02819000     0.16700
C339        C  0.34641105  0.51429002  0.46735104     0.88500
C340        C  0.34980831  0.52363426  0.43090978    -0.51700
C341        C  0.35144958  0.54857683  0.42628057     0.11500
C342        C  0.34983469  0.56205194  0.45933111     0.22400
C343        C  0.37118727  0.53815690  0.48594953    -0.52400
C344        C  0.37308444  0.56343152  0.48201234     0.11600
C345        C  0.32083313  0.51470401  0.47969772    -0.52000
C346        C  0.32261775  0.53966603  0.47588245     0.12100
H347        H  0.34904982  0.51065778  0.41038585     0.16600
H348        H  0.35094262  0.58223391  0.45582627     0.02400
H349        H  0.37819551  0.51749941  0.98335879     0.17000
H350        H  0.30263303  0.49665666  0.49037509     0.16700
In351      In  0.10414268  0.71109366  0.01299909     1.36900
C352        C  0.14282251  0.76474394  0.00490668     0.79600
O353        O  0.09307482  0.72175103  0.06220672    -0.58800
O354        O  0.09417597  0.68448071  0.05885003    -0.49700
C355        C  0.05979685  0.69889548  0.48623703     0.72300
O356        O  0.07677560  0.72410205  0.49293297    -0.44600
C357        C  0.13701350  0.69051611  0.49299573     0.77000
O358        O  0.13662697  0.75571941  0.48080958    -0.56400
O359        O  0.13052818  0.69251236  0.02307048    -0.46500
O360        O  0.13840343  0.75230534  0.03237836    -0.52900
C361        C  0.09090803  0.70089618  0.07700047     0.87200
O362        O  0.06523364  0.67558011  0.98940371    -0.54800
O363        O  0.12609051  0.69884122  0.47185932    -0.58100
In364      In  0.28018391  0.88470586  0.49135432     1.36900
C365        C  0.28347676  0.89575215  0.42710120     0.82000
O366        O  0.24228482  0.84668094  0.47094136    -0.58800
O367        O  0.22783947  0.85671496  0.01567594    -0.49700
C368        C  0.29143247  0.85490032  0.00557335     0.72300
O369        O  0.30863283  0.86825451  0.48460520    -0.44600
C370        C  0.28923117  0.93326052  0.00350352     0.77000
O371        O  0.29841028  0.88787767  0.44111472    -0.56400
O372        O  0.26314542  0.91716279  0.00179166    -0.46500
O373        O  0.26705032  0.89849243  0.44595242    -0.52900
C374        C  0.21370286  0.83961310  0.99282665     0.87200
O375        O  0.28430685  0.86786909  0.02493928    -0.54800
O376        O  0.31651906  0.92738477  0.50326557    -0.58100
C377        C  0.33968480  0.77025044  0.03814652     0.88500
C378        C  0.34753254  0.76853942  0.07421706    -0.51700
C379        C  0.35517229  0.74932996  0.07936014     0.11500
C380        C  0.35428038  0.73343196  0.04724319     0.22400
C381        C  0.36509117  0.77602270  0.01763839    -0.52400
C382        C  0.37276135  0.75674626  0.02203509     0.11600
C383        C  0.31684747  0.74067507  0.02897639    -0.52000
C384        C  0.32439155  0.72132641  0.03343610     0.12100
H385        H  0.34778223  0.78197484  0.09390860     0.16600
H386        H  0.36050268  0.71780459  0.05136962     0.02400
H387        H  0.39082500  0.79803810  0.51193766     0.17000
H388        H  0.29638170  0.73540692  0.01977594     0.16700
C389        C  0.22936751  0.65030646  0.46676854     0.88500
C390        C  0.23110533  0.64212760  0.43094828    -0.51700
C391        C  0.25273344  0.63801610  0.42531550     0.11500
C392        C  0.27072252  0.64223860  0.45692945     0.22400
C393        C  0.22788583  0.62707298  0.48851199    -0.52400
C394        C  0.24962242  0.62271075  0.48347538     0.11600
C395        C  0.25794980  0.67580588  0.47428753    -0.52000
C396        C  0.27962450  0.67158844  0.46981199     0.12100
H397        H  0.21608240  0.63928303  0.41171919     0.16600
H398        H  0.28838408  0.63890370  0.45267821     0.02400
H399        H  0.19758995  0.60659879  0.98903385     0.17000
H400        H  0.25604365  0.68719830  0.99684847     0.16700
C401        C  0.48323476  0.77209751  0.45416920     0.88500
C402        C  0.47020354  0.76448037  0.41948276    -0.51700
C403        C  0.44564781  0.73948493  0.41779358     0.11500
C404        C  0.43587059  0.72495207  0.45246750     0.22400
C405        C  0.46108505  0.77182037  0.47644209    -0.52400
C406        C  0.43589273  0.74712224  0.47571495     0.11600
C407        C  0.48532041  0.74727160  0.46558527    -0.52000
C408        C  0.46056658  0.72264998  0.46556614     0.12100
H409        H  0.48082505  0.77692876  0.39776984     0.16600
H410        H  0.41576176  0.70476556  0.45171544     0.02400
H411        H  0.45495874  0.78229683  0.99386924     0.17000
H412        H  0.50463319  0.74921284  0.47451256     0.16700
In413      In  0.66059639  0.87965851  0.00864790     1.36900
C414        C  0.67107443  0.89020286  0.07312935     0.79600
O415        O  0.65930497  0.84037749  0.02186999    -0.58800
O416        O  0.68213241  0.86150080  0.47791444    -0.49700
C417        C  0.61605443  0.86280667  0.48156989     0.72300
O418        O  0.61486815  0.85857721  0.01905827    -0.44600
C419        C  0.69803918  0.93793494  0.48360764     0.77000
O420        O  0.64884730  0.88600022  0.05969690    -0.56400
O421        O  0.70786710  0.92234660  0.48728914    -0.46500
O422        O  0.68828593  0.88944143  0.05365741    -0.52900
C423        C  0.67610213  0.84409045  0.50117481     0.87200
O424        O  0.63653847  0.86684732  0.46408415    -0.54800
O425        O  0.66486177  0.92036536  0.99429094    -0.58100
In426      In  0.66005341  0.71775384  0.50287733     1.36900
C427        C  0.67062370  0.76768258  0.98221521     0.79600
O428        O  0.68242815  0.72705190  0.45420850    -0.58800
O429        O  0.64010773  0.69364577  0.45605579    -0.49700
C430        C  0.69062842  0.69598071  0.00291666     0.72300
O431        O  0.70065260  0.72168634  0.99884465    -0.44600
C432        C  0.60917897  0.68841013  0.00007201     0.77000
O433        O  0.67675433  0.75633739  0.00522253    -0.56400
O434        O  0.61362630  0.69093771  0.50575328    -0.46500
O435        O  0.65638935  0.75222761  0.48039946    -0.52900
C436        C  0.66165300  0.70809682  0.43873696     0.87200
O437        O  0.66501973  0.68201959  0.51863107    -0.54800
O438        O  0.63002950  0.70111693  0.01922708    -0.58100
C439        C  0.47639513  0.63868567  0.03602091     0.88500
C440        C  0.46703925  0.63143687  0.07215600    -0.51700
C441        C  0.44179304  0.62856067  0.07859187     0.11500
C442        C  0.42797767  0.63311817  0.04739545     0.22400
C443        C  0.45283709  0.61568237  0.01512321    -0.52400
C444        C  0.42723608  0.61272232  0.02084370     0.11600
C445        C  0.47543487  0.66480155  0.02831821    -0.52000
C446        C  0.45004104  0.66186646  0.03358596     0.12100
H447        H  0.47931486  0.62862158  0.09116746     0.16600
H448        H  0.40738477  0.63085676  0.05230570     0.02400
H449        H  0.46999494  0.61245963  0.53642751     0.17000
H450        H  0.49300849  0.68368354  0.01811946     0.16700
In451      In  0.66196632  0.71505812  0.27321362     1.36900
C452        C  0.67556329  0.76775140  0.26587629     0.79600
O453        O  0.63372648  0.70526405  0.22814599    -0.58800
O454        O  0.61536052  0.68942205  0.27561810    -0.49700
C455        C  0.69274193  0.69396668  0.25272842     0.72300
O456        O  0.70344790  0.71906719  0.26107310    -0.44600
C457        C  0.66315617  0.70713727  0.33810597     0.77000
O458        O  0.68312007  0.75593148  0.24526343    -0.56400
O459        O  0.64354558  0.68987964  0.31965823    -0.46500
O460        O  0.66154802  0.75291066  0.29015979    -0.52900
C461        C  0.61165919  0.69165126  0.24498947     0.87200
O462        O  0.66652733  0.68016579  0.25300486    -0.54800
O463        O  0.68250503  0.72802403  0.32340598    -0.58100
In464      In  0.67015512  0.88203806  0.23851136     1.36900
C465        C  0.67553072  0.89213242  0.17385449     0.79600
O466        O  0.67478044  0.92314270  0.25044811    -0.58800
O467        O  0.70968173  0.91875568  0.25975253    -0.49700
C468        C  0.61816239  0.85549424  0.26022734     0.72300
O469        O  0.62434984  0.85501377  0.23016224    -0.44600
C470        C  0.68071694  0.84175557  0.25113533     0.77000
O471        O  0.65391965  0.88690533  0.18962778    -0.56400
O472        O  0.68237270  0.85831245  0.27358232    -0.46500
O473        O  0.69490711  0.89314591  0.19122732    -0.52900
C474        C  0.69977613  0.93446555  0.25980335     0.87200
O475        O  0.63851587  0.86973729  0.27957951    -0.54800
O476        O  0.67520757  0.84668948  0.22239822    -0.58100
C477        C  0.47948875  0.65126758  0.20824720     0.88500
C478        C  0.47779619  0.67661795  0.21809310    -0.51700
C479        C  0.45175194  0.67273342  0.21512657     0.11500
C480        C  0.42968604  0.64387447  0.20170167     0.22400
C481        C  0.45750628  0.62748573  0.22965493    -0.52400
C482        C  0.43115715  0.62338222  0.22649205     0.11600
C483        C  0.46824632  0.64445803  0.17254405    -0.52000
C484        C  0.44223894  0.64076984  0.16862899     0.12100
H485        H  0.49561413  0.69595523  0.22710540     0.16600
H486        H  0.40860777  0.64101848  0.19883566     0.02400
H487        H  0.46293936  0.61586047  0.24651649     0.17000
H488        H  0.48049398  0.64415331  0.15172613     0.16700
C489        C  0.48247904  0.77022940  0.28737060     0.88500
C490        C  0.47521118  0.74326501  0.26990520    -0.51700
C491        C  0.44758923  0.72307072  0.27167938     0.11500
C492        C  0.42989453  0.73189926  0.29194075     0.22400
C493        C  0.46300276  0.77882695  0.27203923    -0.52400
C494        C  0.43541965  0.75868398  0.27386733     0.11600
C495        C  0.47265544  0.76204528  0.32318822    -0.52000
C496        C  0.44505892  0.74222047  0.32621138     0.12100
H497        H  0.49063217  0.74043536  0.25701779     0.16600
H498        H  0.40750114  0.71554441  0.29401417     0.02400
H499        H  0.47039568  0.79877906  0.25993019     0.17000
H500        H  0.48616059  0.77264974  0.34431636     0.16700
C501        C  0.22353948  0.64697785  0.29811430     0.88500
C502        C  0.24862323  0.66776544  0.27749881    -0.51700
C503        C  0.27051586  0.66337909  0.27801298     0.11500
C504        C  0.26525398  0.63857521  0.30018091     0.22400
C505        C  0.21611129  0.61840677  0.28498942    -0.52400
C506        C  0.23797460  0.61397578  0.28535033     0.11600
C507        C  0.23492340  0.64875341  0.33323858    -0.52000
C508        C  0.25663835  0.64422573  0.33483664     0.12100
H509        H  0.24900971  0.68474391  0.26393387     0.16600
H510        H  0.28305665  0.63510309  0.30122540     0.02400
H511        H  0.19565829  0.60342648  0.27494456     0.17000
H512        H  0.22678422  0.65367507  0.35503774     0.16700
C513        C  0.34477996  0.77014592  0.21054256     0.88500
C514        C  0.31847913  0.74379908  0.22228642    -0.51700
C515        C  0.31960544  0.72026163  0.21913752     0.11500
C516        C  0.34687343  0.72510253  0.20355343     0.22400
C517        C  0.36867327  0.77092350  0.23016404    -0.52400
C518        C  0.36996347  0.74724816  0.22660197     0.11600
C519        C  0.34882477  0.76432724  0.17449836    -0.52000
C520        C  0.34981597  0.74068486  0.17034065     0.12100
H521        H  0.30054793  0.74375581  0.23271106     0.16600
H522        H  0.34750851  0.70577062  0.20051094     0.02400
H523        H  0.38253703  0.78836443  0.24602980     0.17000
H524        H  0.34944273  0.77714687  0.15377200     0.16700
In525      In  0.27555612  0.88241756  0.26253153     1.36900
C526        C  0.28145798  0.89487333  0.32663881     0.79600
O527        O  0.30974840  0.92514580  0.24746861    -0.58800
O528        O  0.26803358  0.91560147  0.24192082    -0.49700
C529        C  0.30289087  0.85905730  0.23860076     0.72300
O530        O  0.30122277  0.86274538  0.26928198    -0.44600
C531        C  0.22377824  0.83940434  0.25612441     0.77000
O532        O  0.29949585  0.89270369  0.31047089    -0.56400
O533        O  0.23553862  0.85713933  0.23316017    -0.46500
O534        O  0.26070632  0.89133466  0.31000738    -0.52900
C535        C  0.29360422  0.93370345  0.24009357     0.87200
O536        O  0.29094835  0.86770897  0.21955916    -0.54800
O537        O  0.23831577  0.84366069  0.28196856    -0.58100
In538      In  0.10831374  0.71410632  0.24145023     1.36900
C539        C  0.09407271  0.70303690  0.17760288     0.79600
O540        O  0.06718071  0.68148535  0.26305972    -0.58800
O541        O  0.07398815  0.72200234  0.25610542    -0.49700
C542        C  0.13505566  0.69048059  0.26714658     0.72300
O543        O  0.13253207  0.69273101  0.23623118    -0.44600
C544        C  0.15021113  0.76630445  0.24786428     0.77000
O545        O  0.09305257  0.68500884  0.19731498    -0.56400
O546        O  0.13131010  0.75490360  0.26964763    -0.46500
O547        O  0.10175005  0.72634679  0.19055619    -0.52900
C548        C  0.05726998  0.69711499  0.26432434     0.87200
O549        O  0.12333917  0.69972587  0.28544576    -0.54800
O550        O  0.14728606  0.75140127  0.22294842    -0.58100
In551      In  0.10798876  0.32796208  0.26578674     1.36900
C552        C  0.09428710  0.31642768  0.32900518     0.79600
O553        O  0.06618209  0.32281489  0.25633740    -0.58800
O554        O  0.07287056  0.29114405  0.23838116    -0.49700
C555        C  0.13353954  0.38018603  0.24391441     0.72300
O556        O  0.13022104  0.37388809  0.27440149    -0.44600
C557        C  0.14880198  0.31721261  0.25950200     0.77000
O558        O  0.10249684  0.34007256  0.31667303    -0.56400
O559        O  0.13117851  0.31173607  0.23649523    -0.46500
O560        O  0.09249871  0.29826845  0.30894201    -0.52900
C561        C  0.05604240  0.29948884  0.24238377     0.87200
O562        O  0.12358592  0.35978970  0.22406463    -0.54800
O563        O  0.14541817  0.32779026  0.28534410    -0.58100
In564      In  0.27168124  0.32582890  0.24321487     1.36900
C565        C  0.22037781  0.31628966  0.25069182     0.79600
O566        O  0.28704946  0.35634055  0.28617883    -0.58800
O567        O  0.29818661  0.37188273  0.23662320    -0.49700
C568        C  0.29487902  0.29823710  0.26676334     0.72300
O569        O  0.26939709  0.28967402  0.27120582    -0.44600
C570        C  0.27156763  0.31332812  0.17961548     0.77000
O571        O  0.23088311  0.30708485  0.27121543    -0.56400
O572        O  0.28901230  0.33677025  0.19162891    -0.46500
O573        O  0.23581281  0.32986548  0.22660810    -0.52900
C574        C  0.29931498  0.37726381  0.26730358     0.87200
O575        O  0.30848877  0.32126392  0.25207794    -0.54800
O576        O  0.25435364  0.29591994  0.20013336    -0.58100
C577        C  0.34774896  0.51157819  0.29583874     0.88500
C578        C  0.32574072  0.51669967  0.28076218    -0.51700
C579        C  0.33227925  0.54376303  0.28264997     0.11500
C580        C  0.36022889  0.56309768  0.30092568     0.22400
C581        C  0.37498037  0.53228526  0.27836987    -0.52400
C582        C  0.38145721  0.55929085  0.28046514     0.11600
C583        C  0.35144242  0.52169874  0.33174417    -0.52000
C584        C  0.35807980  0.54861081  0.33498534     0.12100
H585        H  0.30682737  0.50035486  0.26888185     0.16600
H586        H  0.36565270  0.58505780  0.30316003     0.02400
H587        H  0.38766150  0.52608355  0.26475181     0.17000
H588        H  0.35036119  0.50898797  0.35282157     0.16700
C589        C  0.22594854  0.51357461  0.21686894     0.88500
C590        C  0.25212677  0.51369870  0.22804542    -0.51700
C591        C  0.27602428  0.53899767  0.22563326     0.11500
C592        C  0.27166841  0.56193145  0.21108391     0.22400
C593        C  0.22580127  0.53628990  0.23761735    -0.52400
C594        C  0.24978347  0.56195835  0.23483651     0.11600
C595        C  0.23179923  0.52453849  0.18110926    -0.52000
C596        C  0.25589461  0.54972865  0.17745199     0.12100
H597        H  0.25179903  0.49537982  0.23757204     0.16600
H598        H  0.29129694  0.58240122  0.20856450     0.02400
H599        H  0.20840403  0.53174583  0.25366585     0.17000
H600        H  0.21890877  0.51244050  0.16005606     0.16700
C601        C  0.31450060  0.55292121  0.26610638    -0.14400
C602        C  0.30282389  0.54222050  0.23609345    -0.29600
H603        H  0.30856003  0.56563867  0.28005060     0.14600
H604        H  0.30894080  0.52930529  0.22288543     0.15200
C605        C  0.34038029  0.48248257  0.29318302    -0.16500
C606        C  0.33289324  0.45820757  0.29068232     0.07600
C607        C  0.32266673  0.42961028  0.28599105     0.09500
C608        C  0.31270237  0.40535377  0.27930153    -0.17300
C609        C  0.20071970  0.48584524  0.21997882    -0.16500
C610        C  0.18209801  0.46192217  0.22276110     0.07600
C611        C  0.16278199  0.43321876  0.22721781     0.09500
C612        C  0.14834663  0.40869123  0.23313272    -0.17300
C613        C  0.17185387  0.31291725  0.25645146    -0.11200
C614        C  0.19318240  0.31260037  0.25452358    -0.12800
C615        C  0.17413782  0.79382500  0.25131221    -0.11200
C616        C  0.19613936  0.81551712  0.25310763    -0.12800
C617        C  0.31673304  0.84514001  0.22684577    -0.16500
C618        C  0.32707189  0.83139387  0.22068391     0.07600
C619        C  0.33686380  0.81290535  0.21649744     0.09500
C620        C  0.34242919  0.79489907  0.21400201    -0.17300
C621        C  0.23458480  0.58834036  0.27012560    -0.14400
C622        C  0.25497728  0.58722521  0.25368579    -0.29600
H623        H  0.21342442  0.57069846  0.26944421     0.14600
H624        H  0.27567844  0.60568375  0.25242476     0.15200
C625        C  0.15070057  0.67865606  0.28005889    -0.16500
C626        C  0.16518939  0.66934252  0.28764971     0.07600
C627        C  0.18353269  0.65946720  0.29355330     0.09500
C628        C  0.20059569  0.65255717  0.29657717    -0.17300
C629        C  0.29665533  0.68146635  0.25913108    -0.14400
C630        C  0.29590378  0.69338800  0.23020859    -0.29600
H631        H  0.31651734  0.68739629  0.27085829     0.14600
H632        H  0.27586404  0.68730491  0.21888582     0.15200
C633        C  0.41397259  0.76304285  0.25830254    -0.14400
C634        C  0.39055784  0.74236583  0.24415843    -0.29600
H635        H  0.41909185  0.78441846  0.25594742     0.14600
H636        H  0.38683422  0.72137014  0.24409079     0.15200
C637        C  0.40655313  0.60246197  0.24624733    -0.14400
C638        C  0.40640756  0.58164274  0.26326656    -0.29600
H639        H  0.38776834  0.60360657  0.24557973     0.14600
H640        H  0.42411468  0.57882061  0.26179031     0.15200
C641        C  0.44689919  0.69524849  0.22433001    -0.14400
C642        C  0.43683840  0.69591488  0.25461486    -0.29600
H643        H  0.45930445  0.71467311  0.21082195     0.14600
H644        H  0.42484773  0.67695569  0.26904274     0.15200
C645        C  0.51206041  0.79161290  0.28491741    -0.16500
C646        C  0.53661273  0.80820804  0.28228709     0.07600
C647        C  0.56541858  0.82630635  0.27757520     0.09500
C648        C  0.58984638  0.84047095  0.27125762    -0.17300
C649        C  0.58411157  0.68021341  0.23101081    -0.16500
C650        C  0.56019653  0.67144444  0.22269102     0.07600
C651        C  0.53188876  0.66244425  0.21598757     0.09500
C652        C  0.50793552  0.65626639  0.21196186    -0.17300
C653        C  0.68305525  0.81785273  0.25771464    -0.11200
C654        C  0.68136226  0.79569500  0.26159882    -0.12800
C655        C  0.43070508  0.63882312  0.13439649    -0.14400
C656        C  0.43008383  0.62021154  0.11272726    -0.29600
H657        H  0.43084837  0.65704981  0.12496705     0.14600
H658        H  0.43134983  0.60302419  0.12331022     0.15200
C659        C  0.66220331  0.70431826  0.40355204    -0.11200
C660        C  0.66280777  0.70410262  0.37355463    -0.12800
C661        C  0.58102246  0.67335127  0.01183331    -0.16500
C662        C  0.55667736  0.66146542  0.01900421     0.07600
C663        C  0.52802550  0.64976915  0.02531166     0.09500
C664        C  0.50404201  0.64275122  0.02999111    -0.17300
C665        C  0.67577127  0.89438753  0.10832808    -0.11200
C666        C  0.67714326  0.89510398  0.13833457    -0.12800
C667        C  0.67421916  0.79483891  0.98526722    -0.11200
C668        C  0.67928529  0.82034464  0.49888619    -0.12800
C669        C  0.43587258  0.72566084  0.38456793    -0.14400
C670        C  0.43142545  0.73877241  0.35917969    -0.29600
H671        H  0.44101182  0.70994207  0.37871432     0.14600
H672        H  0.42713164  0.75502309  0.36547661     0.15200
C673        C  0.51056249  0.79797613  0.45517633    -0.16500
C674        C  0.53458547  0.81654993  0.45734846     0.07600
C675        C  0.56342411  0.83519363  0.46228889     0.09500
C676        C  0.58789207  0.84885705  0.46925102    -0.17300
C677        C  0.44517127  0.68421792  0.02325403    -0.14400
C678        C  0.45923829  0.69777682  0.48011580    -0.29600
H679        H  0.45633664  0.70354224  0.03728914     0.14600
H680        H  0.47643501  0.69484860  0.47395218     0.15200
C681        C  0.25542335  0.62809593  0.39191630    -0.14400
C682        C  0.27032485  0.64641881  0.36763313    -0.29600
H683        H  0.23744496  0.60835938  0.38414211     0.14600
H684        H  0.28699321  0.66709827  0.37481287     0.15200
C685        C  0.36628272  0.74796009  0.11251648    -0.14400
C686        C  0.34940099  0.73011060  0.13608617    -0.29600
H687        H  0.38407328  0.76754795  0.12103155     0.14600
H688        H  0.33087554  0.71072493  0.12868387     0.15200
C689        C  0.39736499  0.75969802  0.00452247    -0.14400
C690        C  0.41118335  0.74166492  0.49598130    -0.29600
H691        H  0.42661322  0.78360660  0.50881840     0.14600
H692        H  0.38104144  0.71692163  0.99732805     0.15200
C693        C  0.30404828  0.69177561  0.02636772    -0.14400
C694        C  0.30816096  0.69369619  0.47907138    -0.29600
H695        H  0.28561665  0.68226346  0.04212489     0.14600
H696        H  0.31684322  0.71267244  0.46438407     0.15200
C697        C  0.28362347  0.89942652  0.36185396    -0.11200
C698        C  0.28415232  0.89971417  0.39184702    -0.12800
C699        C  0.30424558  0.83983673  0.01690201    -0.16500
C700        C  0.31382586  0.82547414  0.02352623     0.07600
C701        C  0.32372242  0.80722359  0.02916899     0.09500
C702        C  0.33130183  0.79084692  0.03322897    -0.17300
C703        C  0.08722923  0.69741336  0.11245286    -0.11200
C704        C  0.08834270  0.69810112  0.14253523    -0.12800
C705        C  0.15328977  0.67834254  0.48399237    -0.16500
C706        C  0.16885179  0.66979361  0.47911171     0.07600
C707        C  0.18856190  0.66137139  0.47506842     0.09500
C708        C  0.20636443  0.65547589  0.47181309    -0.17300
C709        C  0.16529923  0.79306285  0.00077153    -0.11200
C710        C  0.18643127  0.81549531  0.99789591    -0.12800
C711        C  0.36734950  0.56208982  0.36828304    -0.14400
C712        C  0.34843654  0.55726793  0.39208401    -0.29600
H713        H  0.38777124  0.56636311  0.37635889     0.14600
H714        H  0.32744811  0.55148779  0.38452024     0.15200
C715        C  0.40110001  0.59288081  0.00280755    -0.14400
C716        C  0.39366933  0.58954230  0.49969041    -0.29600
H717        H  0.41910530  0.57539054  0.51997562     0.14600
H718        H  0.41671102  0.57078086  0.97729981     0.15200
C719        C  0.25033039  0.56038345  0.11924583    -0.14400
C720        C  0.26717432  0.55995954  0.14316865    -0.29600
H721        H  0.23151805  0.55967384  0.12766068     0.14600
H722        H  0.28558620  0.55944553  0.13597243     0.15200
C723        C  0.25376000  0.60224141  0.50243256    -0.14400
C724        C  0.25328954  0.58637084  0.00789929    -0.29600
H725        H  0.27394214  0.60395282  0.50056578     0.14600
H726        H  0.27374261  0.60498133  0.01090023     0.15200
C727        C  0.29882493  0.54265578  0.48504313    -0.14400
C728        C  0.30215401  0.54555692  0.03304831    -0.29600
H729        H  0.30222963  0.56229141  0.98573009     0.14600
H730        H  0.31028030  0.53497101  0.04773913     0.15200
C731        C  0.26949710  0.30624371  0.11467308    -0.11200
C732        C  0.27059929  0.30762234  0.14467462    -0.12800
C733        C  0.31285904  0.40888760  0.48612660    -0.16500
C734        C  0.32424720  0.43349919  0.48025955     0.07600
C735        C  0.33577002  0.46240142  0.47525698     0.09500
C736        C  0.34286584  0.48656548  0.47166937    -0.17300
C737        C  0.08843910  0.31114638  0.39384110    -0.11200
C738        C  0.08892396  0.31132386  0.36385987    -0.12800
C739        C  0.14715310  0.40724633  0.02386321    -0.16500
C740        C  0.16232832  0.43170679  0.02937759     0.07600
C741        C  0.18186230  0.46028045  0.03381059     0.09500
C742        C  0.20001730  0.48424629  0.03747936    -0.17300
C743        C  0.16925847  0.31234839  0.50364030    -0.11200
C744        C  0.19089439  0.31257557  0.50576752    -0.12800
C745        C  0.00553585  0.67701145  0.47848604    -0.11200
C746        C  0.03072465  0.68818888  0.47864611    -0.12800
C747        C  0.88255050  0.55518859  0.46603008    -0.16500
C748        C  0.86747531  0.53089981  0.45941040     0.07600
C749        C  0.84818546  0.50216718  0.45568736     0.09500
C750        C  0.83057043  0.47779096  0.45473449    -0.17300
C751        C  0.71938922  0.67198908  0.01609269    -0.11200
C752        C  0.70703314  0.68426267  0.01326191    -0.12800
C753        C  0.85861556  0.64665704  0.50515969    -0.11200
C754        C  0.83355553  0.64076472  0.99865851    -0.12800
C755        C  0.71621552  0.54801369  0.03193322    -0.16500
C756        C  0.70743363  0.52409098  0.03947163     0.07600
C757        C  0.69856734  0.49586069  0.04506066     0.09500
C758        C  0.69203524  0.47183877  0.04786178    -0.17300
C759        C  0.73127166  0.41102986  0.47919555    -0.14400
C760        C  0.72223262  0.40496241  0.02343177    -0.29600
H761        H  0.72333410  0.42186024  0.46463241     0.14600
H762        H  0.74229745  0.41625070  0.03616688     0.15200
C763        C  0.62254688  0.34679961  0.49973302    -0.14400
C764        C  0.62494570  0.37373136  0.01648228    -0.29600
H765        H  0.64120254  0.34592615  0.49522479     0.14600
H766        H  0.60818970  0.37808012  0.01607905     0.15200
C767        C  0.58561296  0.25846058  0.00517896    -0.14400
C768        C  0.57373978  0.25294034  0.47824227    -0.29600
H769        H  0.60420378  0.27412945  0.51567583     0.14600
H770        H  0.56462729  0.24131639  0.95969249     0.15200
C771        C  0.31557183  0.98784642  0.00657217    -0.11200
C772        C  0.30243866  0.96277904  0.00868979    -0.12800
C773        C  0.44445404  0.10612080  0.00828217    -0.16500
C774        C  0.46874294  0.12011130  0.01590804     0.07600
C775        C  0.49717569  0.13912810  0.02279299     0.09500
C776        C  0.52098900  0.15745879  0.02751194    -0.17300
C777        C  0.31759943  0.27055856  0.48319691    -0.11200
C778        C  0.30531188  0.28301907  0.48435737    -0.12800
C779        C  0.52028398  0.30013374  0.46754244    -0.16500
C780        C  0.49674559  0.29536543  0.47068680     0.07600
C781        C  0.46835261  0.28688171  0.47517206     0.09500
C782        C  0.44389811  0.27743353  0.48088786    -0.17300
C783        C  0.35211286  0.15796501  0.50219080    -0.11200
C784        C  0.35348866  0.13718574  0.50062779    -0.12800
C785        C  0.99646854  0.27254640  0.02154786    -0.11200
C786        C  0.02155233  0.28383932  0.02202871    -0.12800
C787        C  0.71473938  0.96697783  0.47537670    -0.11200
C788        C  0.72633530  0.99203151  0.47456670    -0.12800
C789        C  0.85236514  0.16465131  0.49886064    -0.11200
C790        C  0.83134488  0.14194942  0.49953897    -0.12800
C791        C  0.76954915  0.34815657  0.00079358    -0.14400
C792        C  0.79777155  0.38206366  0.49464409    -0.29600
H793        H  0.74922818  0.34545731  0.00572052     0.14600
H794        H  0.81924478  0.38741358  0.49756740     0.15200
C795        C  0.83065758  0.30920708  0.03262145    -0.16500
C796        C  0.84885066  0.30388382  0.02999613     0.07600
C797        C  0.86670809  0.29330091  0.02618235     0.09500
C798        C  0.87968607  0.28200245  0.02093493    -0.17300
C799        C  0.64128162  0.21233497  0.49212794    -0.14400
C800        C  0.62418024  0.20684701  0.00588015    -0.29600
H801        H  0.64374069  0.23275826  0.48981085     0.14600
H802        H  0.64369126  0.22622746  0.01040342     0.15200
C803        C  0.71126199  0.10687635  0.46963331    -0.16500
C804        C  0.70108042  0.12081855  0.46340865     0.07600
C805        C  0.69171553  0.13971817  0.45916343     0.09500
C806        C  0.68661062  0.15810160  0.45691148    -0.17300
C807        C  0.73375585  0.25866512  0.48043581    -0.14400
C808        C  0.72890997  0.25426841  0.01818049    -0.29600
H809        H  0.75435734  0.26598599  0.47023576     0.14600
H810        H  0.72463929  0.23511233  0.03024205     0.15200
C811        C  0.78409296  0.39421388  0.36477034    -0.14400
C812        C  0.76664882  0.39404420  0.38793596    -0.29600
H813        H  0.80382091  0.39719799  0.37384691     0.14600
H814        H  0.74733076  0.39252201  0.37996220     0.15200
C815        C  0.00310248  0.67477987  0.27092978    -0.11200
C816        C  0.02827414  0.68650767  0.27137224    -0.12800
C817        C  0.93740154  0.63700484  0.13750973    -0.11200
C818        C  0.93578390  0.63584078  0.10744295    -0.12800
C819        C  0.83039760  0.46824929  0.27982007    -0.16500
C820        C  0.84761096  0.49235876  0.27507641     0.07600
C821        C  0.86597430  0.52105038  0.26984675     0.09500
C822        C  0.88026753  0.54562303  0.26449466    -0.17300
C823        C  0.72091808  0.66848871  0.24502012    -0.11200
C824        C  0.70898419  0.68130944  0.24586592    -0.12800
C825        C  0.75030369  0.63717258  0.36975539    -0.11200
C826        C  0.74972411  0.63839096  0.39963928    -0.12800
C827        C  0.85652918  0.63886602  0.25371718    -0.11200
C828        C  0.83474154  0.63817267  0.25718104    -0.12800
C829        C  0.68913328  0.40021417  0.14332334    -0.14400
C830        C  0.66903487  0.39034294  0.11966027    -0.29600
H831        H  0.71060051  0.41331642  0.13510053     0.14600
H832        H  0.64732706  0.37896515  0.12736371     0.15200
C833        C  0.68756314  0.46373382  0.22738821    -0.16500
C834        C  0.69433444  0.48772332  0.23133114     0.07600
C835        C  0.70467459  0.51637583  0.23600221     0.09500
C836        C  0.71492431  0.54087247  0.24157088    -0.17300
C837        C  0.71819340  0.39591662  0.24869957    -0.14400
C838        C  0.72851224  0.40330028  0.27990965    -0.29600
H839        H  0.72704615  0.38750371  0.23162739     0.14600
H840        H  0.71977895  0.41209438  0.29657565     0.15200
C841        C  0.59378124  0.30153334  0.36641773    -0.14400
C842        C  0.59711656  0.32035133  0.38972615    -0.29600
H843        H  0.58983196  0.28130978  0.37438552     0.14600
H844        H  0.59955191  0.33975767  0.38063750     0.15200
C845        C  0.62348453  0.34408219  0.25838181    -0.14400
C846        C  0.62387261  0.36086756  0.23397447    -0.29600
H847        H  0.64307864  0.34674096  0.26733711     0.14600
H848        H  0.60467794  0.35896753  0.22500001     0.15200
C849        C  0.59829364  0.21959505  0.13302376    -0.14400
C850        C  0.58696472  0.22679913  0.10809273    -0.29600
H851        H  0.61194854  0.21186433  0.12680320     0.14600
H852        H  0.57248969  0.23334658  0.11522360     0.15200
C853        C  0.57344219  0.24930099  0.27071236    -0.14400
C854        C  0.58690440  0.25046078  0.24229813    -0.29600
H855        H  0.55830180  0.22918535  0.28111496     0.14600
H856        H  0.60207824  0.27042578  0.23157829     0.15200
C857        C  0.32021175  0.27032860  0.27518062    -0.11200
C858        C  0.30746859  0.28228795  0.27514959    -0.12800
C859        C  0.34766175  0.23430572  0.14231529    -0.11200
C860        C  0.34606672  0.23302343  0.11227526    -0.12800
C861        C  0.44574383  0.27698513  0.27663305    -0.16500
C862        C  0.47008627  0.28577848  0.28267662     0.07600
C863        C  0.49832304  0.29352839  0.28721332     0.09500
C864        C  0.52167373  0.29762192  0.28993731    -0.17300
C865        C  0.31522988  0.98762064  0.23317184    -0.11200
C866        C  0.30390259  0.96255971  0.23307630    -0.12800
C867        C  0.35493381  0.05823641  0.39189160    -0.11200
C868        C  0.35389178  0.05745549  0.36184685    -0.12800
C869        C  0.43909189  0.10700913  0.21733079    -0.16500
C870        C  0.46337208  0.12069269  0.20959752     0.07600
C871        C  0.49238829  0.13841000  0.20456825     0.09500
C872        C  0.51708341  0.15514068  0.20261367    -0.17300
C873        C  0.35146293  0.15771801  0.25184494    -0.11200
C874        C  0.35108122  0.13603255  0.25333214    -0.12800
C875        C  0.00167871  0.27037302  0.23425328    -0.11200
C876        C  0.02685001  0.28299220  0.23436632    -0.12800
C877        C  0.93771509  0.24990006  0.39500651    -0.11200
C878        C  0.93818094  0.24875874  0.36507011    -0.12800
C879        C  0.71591823  0.96363961  0.26762052    -0.11200
C880        C  0.72737045  0.98867736  0.26859838    -0.12800
C881        C  0.74691137  0.05207148  0.14144727    -0.11200
C882        C  0.74617446  0.05152344  0.11140397    -0.12800
C883        C  0.85687177  0.15510338  0.26261547    -0.11200
C884        C  0.83523207  0.13314796  0.26060810    -0.12800
C885        C  0.77500656  0.32301050  0.13654715    -0.14400
C886        C  0.76116287  0.30564586  0.11083860    -0.29600
H887        H  0.79121244  0.34422866  0.13069377     0.14600
H888        H  0.74543598  0.28416014  0.11620538     0.15200
C889        C  0.80123315  0.36438501  0.23840136    -0.14400
C890        C  0.78097367  0.36554981  0.25498723    -0.29600
H891        H  0.82258218  0.38178016  0.23959483     0.14600
H892        H  0.76026228  0.34710820  0.25643299     0.15200
C893        C  0.82763945  0.29479804  0.20901202    -0.16500
C894        C  0.84426777  0.28735990  0.21178861     0.07600
C895        C  0.86291363  0.27790384  0.21740525     0.09500
C896        C  0.87790116  0.26924607  0.22506007    -0.17300
C897        C  0.66413912  0.21034924  0.35839531    -0.14400
C898        C  0.68201744  0.22666177  0.38251729    -0.29600
H899        H  0.64529423  0.19156972  0.36656256     0.14600
H900        H  0.70163591  0.24503311  0.37553435     0.15200
C901        C  0.63885900  0.20995269  0.24786646    -0.14400
C902        C  0.61679007  0.18915618  0.23155490    -0.29600
H903        H  0.64093291  0.23024157  0.24950734     0.14600
H904        H  0.61327277  0.16827047  0.23238250     0.15200
C905        C  0.69066811  0.16101161  0.27848430    -0.16500
C906        C  0.69686014  0.14343324  0.27585787     0.07600
C907        C  0.70654049  0.12471624  0.27268401     0.09500
C908        C  0.71650189  0.11034992  0.26825426    -0.17300
C909        C  0.73173020  0.26276762  0.27229442    -0.14400
C910        C  0.73271714  0.27345557  0.24173951    -0.29600
H911        H  0.75122018  0.27010282  0.28579162     0.14600
H912        H  0.71370039  0.26607293  0.22725597     0.15200
C913        C  0.66881965  0.17112082  0.78627214     0.88500
C914        C  0.66235932  0.17455338  0.82234048    -0.51700
C915        C  0.66107784  0.19784256  0.82786856     0.11500
C916        C  0.66611996  0.21560629  0.79599667     0.22400
C917        C  0.64613085  0.17170769  0.76513552    -0.52400
C918        C  0.64467179  0.19520157  0.77000299     0.11600
C919        C  0.69574993  0.19816441  0.77785286    -0.52000
C920        C  0.69436374  0.22142915  0.78242495     0.12100
H921        H  0.65921937  0.15985068  0.84203143     0.16600
H922        H  0.66521705  0.23467482  0.80025561     0.02400
H923        H  0.63319377  0.15533315  0.74752291     0.17000
H924        H  0.71426481  0.19888012  0.76827775     0.16700
C925        C  0.79379680  0.29403520  0.70875913     0.88500
C926        C  0.78302064  0.29086721  0.67305606    -0.51700
C927        C  0.76160542  0.29562237  0.66940095     0.11500
C928        C  0.75248216  0.30275179  0.70270424     0.22400
C929        C  0.80123993  0.32314617  0.71968520    -0.52400
C930        C  0.77957309  0.32770887  0.71722692     0.11600
C931        C  0.76825364  0.27411829  0.72941925    -0.52000
C932        C  0.74647252  0.27861464  0.72660427     0.12100
H933        H  0.79164329  0.28532315  0.65226293     0.16600
H934        H  0.73490375  0.30646325  0.70001259     0.02400
H935        H  0.82153084  0.33844458  0.72983366     0.17000
H936        H  0.76733514  0.25745456  0.74429045     0.16700
In937      In  0.74379867  0.06229054  0.73583049     1.36900
C938        C  0.74227804  0.05241473  0.67094702     0.79600
O939        O  0.78192048  0.10206536  0.71975998    -0.58800
O940        O  0.78239634  0.08704050  0.76831587    -0.49700
C941        C  0.71498921  0.08503895  0.75724231     0.72300
O942        O  0.71650737  0.08003431  0.72693741    -0.44600
C943        C  0.72324030  0.01014252  0.75790226     0.77000
O944        O  0.72447270  0.05625177  0.68505717    -0.56400
O945        O  0.74903250  0.02730361  0.75564448    -0.46500
O946        O  0.76037653  0.05267347  0.69003636    -0.52900
C947        C  0.79515454  0.10571673  0.74658461     0.87200
O948        O  0.72765708  0.07782180  0.77720052    -0.54800
O949        O  0.70809912  0.01996147  0.75087008    -0.58100
In950      In  0.91227938  0.23086787  0.76244674     1.36900
C951        C  0.92498264  0.23469035  0.82650866     0.79600
O952        O  0.87211114  0.19482832  0.78134375    -0.58800
O953        O  0.88840680  0.18917043  0.73615062    -0.49700
C954        C  0.88700925  0.25593158  0.73729298     0.72300
O955        O  0.89554753  0.25920608  0.76704016    -0.44600
C956        C  0.96423729  0.25447952  0.73890543     0.77000
O957        O  0.91695164  0.24957329  0.81283510    -0.56400
O958        O  0.94793741  0.22845167  0.73914353    -0.46500
O959        O  0.92683897  0.21785140  0.80748529    -0.52900
C960        C  0.86901517  0.17893139  0.75745538     0.87200
O961        O  0.89257798  0.24088745  0.71948310    -0.54800
O962        O  0.95344556  0.26817882  0.74825736    -0.58100
In963      In  0.36037992  0.06793008  0.74298500     1.36900
C964        C  0.35512875  0.05790892  0.80793754     0.79600
O965        O  0.36220460  0.10593584  0.76300704    -0.58800
O966        O  0.33868015  0.08821962  0.71850132    -0.49700
C967        C  0.40957145  0.09504481  0.71229469     0.72300
O968        O  0.40692435  0.08841961  0.74270146    -0.44600
C969        C  0.33166871  0.01502285  0.72295026     0.77000
O970        O  0.37790835  0.06668023  0.79286087    -0.56400
O971        O  0.32174193  0.03066024  0.72097075    -0.46500
O972        O  0.33482588  0.05373282  0.78982625    -0.52900
C973        C  0.34727536  0.10718232  0.74033370     0.87200
O974        O  0.38696784  0.08697536  0.69680833    -0.54800
O975        O  0.35658209  0.02682381  0.73281293    -0.58100
In976      In  0.35391711  0.22935265  0.74076231     1.36900
C977        C  0.34419538  0.17762687  0.74075458     0.79600
O978        O  0.32808223  0.21794505  0.69387409    -0.58800
O979        O  0.37045325  0.25112564  0.69214521    -0.49700
C980        C  0.32258979  0.24852917  0.76524933     0.72300
O981        O  0.31354953  0.22289275  0.76260272    -0.44600
C982        C  0.40490547  0.25515266  0.76769156     0.77000
O983        O  0.33499971  0.18628713  0.76354686    -0.56400
O984        O  0.39984538  0.25996946  0.73862048    -0.46500
O985        O  0.35792156  0.19510018  0.71838266    -0.52900
C986        C  0.34796059  0.23605136  0.67657206     0.87200
O987        O  0.34789319  0.26404653  0.75788122    -0.54800
O988        O  0.38367462  0.23797728  0.78414819    -0.58100
C989        C  0.54336983  0.18588249  0.69095731     0.88500
C990        C  0.55894790  0.20351634  0.66038754    -0.51700
C991        C  0.58678785  0.22143453  0.66577757     0.11500
C992        C  0.59531587  0.22269052  0.70319191     0.22400
C993        C  0.56043888  0.17338688  0.70415371    -0.52400
C994        C  0.58756046  0.19276433  0.71164033     0.11600
C995        C  0.54714974  0.20721767  0.71717164    -0.52000
C996        C  0.57439397  0.22683572  0.72377495     0.12100
H997        H  0.54805551  0.20419213  0.63833652     0.16600
H998        H  0.61746370  0.23862938  0.70840503     0.02400
H999        H  0.55142091  0.15132075  0.70898066     0.17000
H1000       H  0.52960472  0.20723118  0.72866497     0.16700
C1001       C  0.53788605  0.29395321  0.79490146     0.88500
C1002       C  0.55012322  0.30074812  0.83012586    -0.51700
C1003       C  0.57551442  0.30286680  0.83314760     0.11500
C1004       C  0.58645750  0.29818700  0.79959943     0.22400
C1005       C  0.56018744  0.31674336  0.77258112    -0.52400
C1006       C  0.58591381  0.31917881  0.77480488     0.11600
C1007       C  0.53745485  0.26746565  0.78513638    -0.52000
C1008       C  0.56283245  0.26965368  0.78691568     0.12100
H1009       H  0.53896343  0.30238344  0.85131543     0.16600
H1010       H  0.60700838  0.29972497  0.80167836     0.02400
H1011       H  0.55542423  0.32918224  0.75626809     0.17000
H1012       H  0.51883294  0.24886973  0.77602030     0.16700
C1013       C  0.67362996  0.43057390  0.71123025     0.88500
C1014       C  0.67372604  0.42259369  0.67486514    -0.51700
C1015       C  0.66701390  0.39571649  0.67032210     0.11500
C1016       C  0.66079692  0.37909607  0.70351024     0.22400
C1017       C  0.64460461  0.40927686  0.72422640    -0.52400
C1018       C  0.63792336  0.38227710  0.72092267     0.11600
C1019       C  0.69347784  0.42379746  0.72933546    -0.52000
C1020       C  0.68678316  0.39678395  0.72565865     0.12100
H1021       H  0.67788272  0.43682237  0.65427389     0.16600
H1022       H  0.65530988  0.35719322  0.70019939     0.02400
H1023       H  0.63099374  0.41506480  0.73635842     0.17000
H1024       H  0.71142071  0.43912074  0.74368380     0.16700
In1025     In  0.75040838  0.61813311  0.76194803     1.36900
C1026       C  0.80208341  0.62680778  0.75694330     0.79600
O1027       O  0.76570090  0.64575177  0.80719606    -0.58800
O1028       O  0.72892013  0.60572487  0.81133925    -0.49700
C1029       C  0.72905249  0.64734715  0.73592727     0.72300
O1030       O  0.75496585  0.65676807  0.73671114    -0.44600
C1031       C  0.72289814  0.56581194  0.74001532     0.77000
O1032       O  0.79188281  0.63525511  0.73495994    -0.56400
O1033       O  0.72419908  0.57221977  0.77034896    -0.46500
O1034       O  0.78630264  0.61468533  0.78132668    -0.52900
C1035       C  0.74655248  0.62796491  0.82562132     0.87200
O1036       O  0.71433589  0.62284218  0.74648854    -0.54800
O1037       O  0.73504572  0.58618404  0.72023140    -0.58100
In1038     In  0.91547123  0.61548371  0.73785494     1.36900
C1039       C  0.92830194  0.62885916  0.67419087     0.79600
O1040       O  0.87564382  0.61290910  0.72212330    -0.58800
O1041       O  0.89361364  0.63290958  0.76831266    -0.49700
C1042       C  0.88784560  0.56271359  0.75759622     0.72300
O1043       O  0.89377646  0.56981795  0.72751037    -0.44600
C1044       C  0.96782465  0.64190545  0.76189813     0.77000
O1045       O  0.92298205  0.60585033  0.68607175    -0.56400
O1046       O  0.95235903  0.65204478  0.76414874    -0.46500
O1047       O  0.92762893  0.64541814  0.69486237    -0.52900
C1048       C  0.87385631  0.62509372  0.74749441     0.87200
O1049       O  0.89689126  0.58257453  0.77818795    -0.54800
O1050       O  0.95606727  0.61784684  0.74959608    -0.58100
C1051       C  0.79213441  0.42884518  0.78494832     0.88500
C1052       C  0.78962996  0.41946100  0.82120191    -0.51700
C1053       C  0.76712843  0.39370547  0.82737800     0.11500
C1054       C  0.74910649  0.37933529  0.79578561     0.22400
C1055       C  0.79246457  0.40606733  0.76431568    -0.52400
C1056       C  0.76975620  0.37985658  0.76964597     0.11600
C1057       C  0.76430079  0.42629716  0.77653703    -0.52000
C1058       C  0.74175805  0.40037572  0.78172493     0.12100
H1059       H  0.80450395  0.43216937  0.84052180     0.16600
H1060       H  0.73067465  0.35833454  0.80048763     0.02400
H1061       H  0.80902430  0.41085543  0.74673594     0.17000
H1062       H  0.76253019  0.44334271  0.76652541     0.16700
C1063       C  0.68300669  0.17872218  0.95409742     0.88500
C1064       C  0.70419885  0.20507657  0.97280248    -0.51700
C1065       C  0.69843265  0.22600597  0.97177577     0.11500
C1066       C  0.67209450  0.21858681  0.95123912     0.22400
C1067       C  0.65474594  0.17069477  0.96907039    -0.52400
C1068       C  0.64918098  0.19169627  0.96834842     0.11600
C1069       C  0.68234666  0.18816785  0.91859202    -0.52000
C1070       C  0.67651541  0.20890702  0.91660846     0.12100
H1071       H  0.72223115  0.20694003  0.98565958     0.16600
H1072       H  0.66738614  0.23551628  0.94996155     0.02400
H1073       H  0.64717771  0.16458347  0.48956951     0.17000
H1074       H  0.68628661  0.17927469  0.89669844     0.16700
C1075       C  0.80513516  0.31372685  0.54501254     0.88500
C1076       C  0.78029598  0.28868927  0.52840782    -0.51700
C1077       C  0.75617867  0.28926119  0.52891099     0.11500
C1078       C  0.75895525  0.31446883  0.54786108     0.22400
C1079       C  0.80701744  0.33905103  0.52767601    -0.52400
C1080       C  0.78258187  0.33942260  0.52875954     0.11600
C1081       C  0.79581797  0.31425675  0.58058129    -0.52000
C1082       C  0.77161510  0.31451998  0.58247313     0.12100
H1083       H  0.78199503  0.27232564  0.51626965     0.16600
H1084       H  0.73922046  0.31464474  0.54911047     0.02400
H1085       H  0.81931816  0.34556292  0.99982683     0.17000
H1086       H  0.80753755  0.31466872  0.60252131     0.16700
In1087     In  0.75393281  0.07127505  0.50636264     1.36900
C1088       C  0.74736604  0.05700952  0.57032017     0.79600
O1089       O  0.72063345  0.02993987  0.48602570    -0.58800
O1090       O  0.75746701  0.03172256  0.99280874    -0.49700
C1091       C  0.72753230  0.09137679  0.98421522     0.72300
O1092       O  0.72446979  0.08664722  0.51181718    -0.44600
C1093       C  0.80380627  0.11068918  0.00719863     0.77000
O1094       O  0.73004573  0.06050988  0.55425401    -0.56400
O1095       O  0.79377851  0.09206401  0.98490246    -0.46500
O1096       O  0.76791547  0.06028745  0.55371514    -0.52900
C1097       C  0.73166552  0.01553349  0.98821190     0.87200
O1098       O  0.74246574  0.08511842  0.96723353    -0.54800
O1099       O  0.78806369  0.11256169  0.52526543    -0.58100
In1100     In  0.91577598  0.23844412  0.99024757     1.36900
C1101       C  0.92769598  0.23889987  0.92661017     0.79600
O1102       O  0.95867909  0.27494189  0.99958240    -0.58800
O1103       O  0.95238557  0.23865275  0.51594246    -0.49700
C1104       C  0.89537933  0.27262745  0.51696277     0.72300
O1105       O  0.89482200  0.26248232  0.98054536    -0.44600
C1106       C  0.87404127  0.18650902  0.99912235     0.77000
O1107       O  0.92070463  0.25512159  0.93863727    -0.56400
O1108       O  0.89424520  0.20336601  0.52004711    -0.46500
O1109       O  0.92961481  0.22297417  0.94724702    -0.52900
C1110       C  0.96981400  0.26424732  0.51880432     0.87200
O1111       O  0.89882525  0.25620085  0.53513378    -0.54800
O1112       O  0.87716067  0.19997778  0.97277714    -0.58100
In1113     In  0.36290655  0.23573998  0.51286830     1.36900
C1114       C  0.35204254  0.18034818  0.00040105     0.79600
O1115       O  0.39187153  0.24750025  0.97313414    -0.58800
O1116       O  0.40878297  0.26320809  0.52153417    -0.49700
C1117       C  0.32582876  0.24819529  0.98815604     0.72300
O1118       O  0.31657197  0.22276361  0.99335264    -0.44600
C1119       C  0.35219347  0.23849276  0.57638435     0.77000
O1120       O  0.34432659  0.19198637  0.97953543    -0.56400
O1121       O  0.37584233  0.25431552  0.56377022    -0.46500
O1122       O  0.36490045  0.19917693  0.53157056    -0.52900
C1123       C  0.41119550  0.25984092  0.99443001     0.87200
O1124       O  0.35941663  0.27221863  0.49705398    -0.54800
O1125       O  0.33375761  0.22139903  0.55654519    -0.58100
In1126     In  0.36413344  0.06842234  0.97387552     1.36900
C1127       C  0.35616104  0.05764558  0.90904696     0.79600
O1128       O  0.35815933  0.02739327  0.99056138    -0.58800
O1129       O  0.33228843  0.03703953  0.51739235    -0.49700
C1130       C  0.41936155  0.09725150  0.51995679     0.72300
O1131       O  0.41010021  0.08791708  0.96603855    -0.44600
C1132       C  0.35565122  0.11047889  0.98460220     0.77000
O1133       O  0.37789683  0.06198695  0.92400552    -0.56400
O1134       O  0.34854824  0.09413420  0.51784048    -0.46500
O1135       O  0.33801274  0.05796647  0.92726022    -0.52900
C1136       C  0.34089270  0.02063394  0.51154685     0.87200
O1137       O  0.39733477  0.08662801  0.53705435    -0.54800
O1138       O  0.36518070  0.10734229  0.95765826    -0.58100
C1139       C  0.55339508  0.18222460  0.54855251     0.88500
C1140       C  0.55531227  0.20629887  0.52800786    -0.51700
C1141       C  0.58185456  0.22845172  0.52425246     0.11500
C1142       C  0.60377646  0.22458302  0.54251375     0.22400
C1143       C  0.57293037  0.17492542  0.53137125    -0.52400
C1144       C  0.59947379  0.19696475  0.52798781     0.11600
C1145       C  0.56762256  0.19464623  0.58217494    -0.52000
C1146       C  0.59355160  0.21804870  0.57949475     0.12100
H1147       H  0.53711674  0.20578170  0.51748483     0.16600
H1148       H  0.62533989  0.24263506  0.53967327     0.02400
H1149       H  0.56860743  0.16030356  0.00655425     0.17000
H1150       H  0.55883900  0.18355633  0.60491122     0.16700
C1151       C  0.54562613  0.30666131  0.96778117     0.88500
C1152       C  0.54634966  0.28023976  0.97387836    -0.51700
C1153       C  0.57142269  0.28292293  0.96704043     0.11500
C1154       C  0.59355300  0.31182527  0.95369579     0.22400
C1155       C  0.56987055  0.32911494  0.98854130    -0.52400
C1156       C  0.59529955  0.33202287  0.98137511     0.11600
C1157       C  0.55425780  0.31443265  0.93149784    -0.52000
C1158       C  0.57912117  0.31695578  0.92356967     0.12100
H1159       H  0.52880815  0.26121924  0.98386707     0.16600
H1160       H  0.61386069  0.31382743  0.94763712     0.02400
H1161       H  0.56710496  0.33693737  0.50293917     0.17000
H1162       H  0.54153139  0.31741004  0.91330823     0.16700
C1163       C  0.68510559  0.44002729  0.54131365     0.88500
C1164       C  0.70548513  0.43505256  0.52170597    -0.51700
C1165       C  0.70080926  0.40864508  0.52464661     0.11500
C1166       C  0.67575697  0.38954431  0.54733295     0.22400
C1167       C  0.65617110  0.41762747  0.52915490    -0.52400
C1168       C  0.65120064  0.39112558  0.53160023     0.11600
C1169       C  0.68713395  0.43210425  0.57720047    -0.52000
C1170       C  0.68206038  0.40572187  0.58085836     0.12100
H1171       H  0.72275009  0.45139283  0.50759383     0.16600
H1172       H  0.67186860  0.36813163  0.55002318     0.02400
H1173       H  0.64497545  0.42909789  0.01893545     0.17000
H1174       H  0.69268926  0.44645216  0.59801404     0.16700
In1175     In  0.75384157  0.62571654  0.99098954     1.36900
C1176       C  0.80881328  0.64109183  0.50373387     0.79600
O1177       O  0.74168214  0.59519338  0.53934962    -0.58800
O1178       O  0.72473570  0.57972752  0.98856013    -0.49700
C1179       C  0.73323086  0.65653388  0.52242558     0.72300
O1180       O  0.75923045  0.66665078  0.52184595    -0.44600
C1181       C  0.74829059  0.63051139  0.92626310     0.77000
O1182       O  0.79624133  0.64408117  0.52805071    -0.56400
O1183       O  0.73513801  0.60754716  0.94130848    -0.46500
O1184       O  0.79102575  0.62566604  0.97072625    -0.52900
C1185       C  0.73068373  0.57521420  0.51882143     0.87200
O1186       O  0.71737847  0.62977642  0.00525607    -0.54800
O1187       O  0.76409115  0.65124359  0.94427721    -0.58100
In1188     In  0.92354129  0.63236612  0.50833962     1.36900
C1189       C  0.93262522  0.63637873  0.57364284     0.79600
O1190       O  0.96354511  0.63570623  0.49187347    -0.58800
O1191       O  0.95395205  0.65892808  0.98227050    -0.49700
C1192       C  0.88872510  0.57182208  0.98109078     0.72300
O1193       O  0.90824811  0.58707981  0.50858642    -0.44600
C1194       C  0.87754348  0.63528839  0.00285230     0.77000
O1195       O  0.92344907  0.61394681  0.55783241    -0.56400
O1196       O  0.89717720  0.64401520  0.98197803    -0.46500
O1197       O  0.93826175  0.65726473  0.55603175    -0.52900
C1198       C  0.96905993  0.64838311  0.98447983     0.87200
O1199       O  0.89585369  0.59339128  0.96403107    -0.54800
O1200       O  0.88317190  0.62645480  0.52669433    -0.58100
C1201       C  0.79437257  0.43765591  0.95360536     0.88500
C1202       C  0.76910009  0.43160632  0.97458962    -0.51700
C1203       C  0.74787599  0.40433792  0.97412846     0.11500
C1204       C  0.75408457  0.38555949  0.95205116     0.22400
C1205       C  0.80306034  0.41763017  0.96660923    -0.52400
C1206       C  0.78203622  0.39033091  0.96648962     0.11600
C1207       C  0.78286294  0.42729911  0.91857612    -0.52000
C1208       C  0.76193098  0.40004257  0.91724366     0.12100
H1209       H  0.76794491  0.44767283  0.98832156     0.16600
H1210       H  0.73694716  0.36342623  0.95128992     0.02400
H1211       H  0.83449083  0.43726703  0.48818909     0.17000
H1212       H  0.79051666  0.44048904  0.89655738     0.16700
In1213     In  0.10306970  0.32648566  0.99262934     1.36900
C1214       C  0.09075502  0.31946384  0.92849350     0.79600
O1215       O  0.13751593  0.32094844  0.97415147    -0.58800
O1216       O  0.12612304  0.30723627  0.52064765    -0.49700
C1217       C  0.13183860  0.37769316  0.51676430     0.72300
O1218       O  0.12886900  0.37205687  0.98323627    -0.44600
C1219       C  0.05302776  0.30031745  0.51670872     0.77000
O1220       O  0.09887534  0.34221911  0.94321194    -0.56400
O1221       O  0.06760181  0.28912523  0.51680543    -0.46500
O1222       O  0.08814240  0.29987853  0.94664801    -0.52900
C1223       C  0.14592703  0.31621462  0.49995068     0.87200
O1224       O  0.12504783  0.35688428  0.53518551    -0.54800
O1225       O  0.06319542  0.32416045  0.00620989    -0.58100
In1226     In  0.27034341  0.32748720  0.51699847     1.36900
C1227       C  0.21132135  0.30811388  0.00996013     0.79600
O1228       O  0.25442150  0.29825022  0.56063428    -0.58800
O1229       O  0.28831157  0.33976266  0.56822734    -0.49700
C1230       C  0.28293824  0.28724170  0.98957520     0.72300
O1231       O  0.25724403  0.27681659  0.99477237    -0.44600
C1232       C  0.28799752  0.36889902  0.99405718     0.77000
O1233       O  0.22213065  0.30146955  0.98686398    -0.56400
O1234       O  0.29716078  0.37329048  0.52641118    -0.46500
O1235       O  0.23239720  0.32691612  0.53574296    -0.52900
C1236       C  0.27138748  0.31644296  0.58080525     0.87200
O1237       O  0.30711716  0.32308270  0.50553708    -0.54800
O1238       O  0.27390489  0.34863803  0.97458816    -0.58100
C1239       C  0.22360651  0.51151845  0.54807615     0.88500
C1240       C  0.23321648  0.52127025  0.58380125    -0.51700
C1241       C  0.25396043  0.54855815  0.58644943     0.11500
C1242       C  0.26367811  0.56341078  0.55201197     0.22400
C1243       C  0.21565879  0.53177978  0.53378882    -0.52400
C1244       C  0.23669115  0.55897285  0.53519964     0.11600
C1245       C  0.24980179  0.51766928  0.52936789    -0.52000
C1246       C  0.27097081  0.54490126  0.53089412     0.12100
H1247       H  0.22290982  0.50818786  0.60530002     0.16600
H1248       H  0.28074492  0.58552709  0.55377652     0.02400
H1249       H  0.20901203  0.53017644  0.00202767     0.17000
H1250       H  0.25148764  0.50162825  0.51634327     0.16700
C1251       C  0.33324483  0.50324711  0.96651722     0.88500
C1252       C  0.32833663  0.50937735  0.93088678    -0.51700
C1253       C  0.33624297  0.53645101  0.92542634     0.11500
C1254       C  0.34782991  0.55498129  0.95705405     0.22400
C1255       C  0.36407439  0.52375364  0.97367129    -0.52400
C1256       C  0.37168290  0.55090570  0.96951947     0.11600
C1257       C  0.31746477  0.51270564  0.98862399    -0.52000
C1258       C  0.32503956  0.53989819  0.98385933     0.12100
H1259       H  0.31945648  0.49358026  0.91145673     0.16600
H1260       H  0.35403614  0.57701811  0.95295029     0.02400
H1261       H  0.38507740  0.53480764  0.50154164     0.17000
H1262       H  0.30116684  0.49885516  0.00582079     0.16700
In1263     In  0.11064576  0.71651172  0.51143796     1.36900
C1264       C  0.15402461  0.76815046  0.50414084     0.79600
O1265       O  0.10172631  0.73086849  0.55938968    -0.58800
O1266       O  0.09514443  0.68997286  0.55724740    -0.49700
C1267       C  0.05270807  0.68876877  0.98745027     0.72300
O1268       O  0.06688256  0.71375133  0.99666759    -0.44600
C1269       C  0.13484813  0.69019352  0.99275182     0.77000
O1270       O  0.12701237  0.75010395  0.98132369    -0.56400
O1271       O  0.13356985  0.69455363  0.52305002    -0.46500
O1272       O  0.14894721  0.75451991  0.53080307    -0.52900
C1273       C  0.09460662  0.70845885  0.57444506     0.87200
O1274       O  0.06952796  0.68321847  0.48963781    -0.54800
O1275       O  0.12314741  0.69815566  0.97232432    -0.58100
In1276     In  0.26616230  0.88074921  0.98298937     1.36900
C1277       C  0.27229925  0.89228511  0.91861401     0.82000
O1278       O  0.22585493  0.84423082  0.96518396    -0.58800
O1279       O  0.23997382  0.85891577  0.52041404    -0.49700
C1280       C  0.30721397  0.86069679  0.51447751     0.72300
O1281       O  0.28601513  0.85551852  0.97515355    -0.44600
C1282       C  0.30179969  0.93690252  0.51317271     0.77000
O1283       O  0.28821036  0.88663516  0.93456122    -0.56400
O1284       O  0.27604558  0.91928265  0.51453371    -0.46500
O1285       O  0.25361619  0.89270181  0.93561487    -0.52900
C1286       C  0.22796893  0.84166073  0.49694866     0.87200
O1287       O  0.29301672  0.86657262  0.53344246    -0.54800
O1288       O  0.30320295  0.92204760  0.99731534    -0.58100
C1289       C  0.34956408  0.77051663  0.54013902     0.88500
C1290       C  0.35133740  0.76340967  0.57639354    -0.51700
C1291       C  0.35838357  0.74368676  0.58075898     0.11500
C1292       C  0.36242256  0.73223725  0.54706457     0.22400
C1293       C  0.37773628  0.77852677  0.52499614    -0.52400
C1294       C  0.38438904  0.75837922  0.52785630     0.11600
C1295       C  0.32866182  0.74301089  0.52359030    -0.52000
C1296       C  0.33534842  0.72283869  0.52664056     0.12100
H1297       H  0.34938993  0.77487059  0.59686411     0.16600
H1298       H  0.36793706  0.71597580  0.55001337     0.02400
H1299       H  0.37607040  0.79378520  0.00103385     0.17000
H1300       H  0.31030056  0.73984625  0.51019421     0.16700
C1301       C  0.22649224  0.64928498  0.96436639     0.88500
C1302       C  0.23546419  0.64945030  0.92834308    -0.51700
C1303       C  0.25561885  0.64275371  0.92501098     0.11500
C1304       C  0.26531187  0.63693719  0.95884136     0.22400
C1305       C  0.21778341  0.62041060  0.97771987    -0.52400
C1306       C  0.23814376  0.61396735  0.97545342     0.11600
C1307       C  0.25329943  0.66923082  0.98317455    -0.52000
C1308       C  0.27381847  0.66296237  0.98049389     0.12100
H1309       H  0.22554504  0.65301767  0.90714049     0.16600
H1310       H  0.28179930  0.63164521  0.95640829     0.02400
H1311       H  0.21150162  0.61587000  0.50673806     0.17000
H1312       H  0.26080356  0.69532385  0.48350412     0.16700
C1313       C  0.47273913  0.76037324  0.96311708     0.88500
C1314       C  0.46348033  0.75283533  0.92683260    -0.51700
C1315       C  0.43732469  0.73014453  0.92283165     0.11500
C1316       C  0.42271577  0.71691674  0.95649192     0.22400
C1317       C  0.45010030  0.76390426  0.97956775    -0.52400
C1318       C  0.42371214  0.74098101  0.97642063     0.11600
C1319       C  0.46947928  0.73406083  0.97878530    -0.52000
C1320       C  0.44317468  0.71125566  0.97602190     0.12100
H1321       H  0.47609334  0.76548087  0.90613088     0.16600
H1322       H  0.40139539  0.69839762  0.95374200     0.02400
H1323       H  0.46567409  0.78956075  0.49184778     0.17000
H1324       H  0.48640743  0.73364859  0.99165825     0.16700
In1325     In  0.66721019  0.88615925  0.50683935     1.36900
C1326       C  0.67309375  0.89608934  0.57166029     0.79600
O1327       O  0.66603353  0.84838377  0.52682336    -0.58800
O1328       O  0.67663285  0.85868006  0.97480018    -0.49700
C1329       C  0.60759863  0.85384474  0.98882867     0.72300
O1330       O  0.62181377  0.87109801  0.51134387    -0.44600
C1331       C  0.69033195  0.93204673  0.98721351     0.77000
O1332       O  0.65010304  0.88672464  0.55673819    -0.56400
O1333       O  0.70041943  0.91657974  0.98896672    -0.46500
O1334       O  0.69354457  0.90131596  0.55339900    -0.52900
C1335       C  0.67022142  0.83904258  0.99509626     0.87200
O1336       O  0.62743478  0.86294775  0.96821192    -0.54800
O1337       O  0.67252465  0.92672080  0.49007735    -0.58100
In1338     In  0.66074521  0.71607651  0.97667565     1.36900
C1339       C  0.67284118  0.77040296  0.50079622     0.79600
O1340       O  0.68655738  0.72861629  0.92994415    -0.58800
O1341       O  0.64542663  0.69302177  0.92857941    -0.49700
C1342       C  0.69082005  0.69678716  0.52412354     0.72300
O1343       O  0.70074288  0.72258019  0.52127077    -0.44600
C1344       C  0.61208280  0.69663415  0.53577484     0.77000
O1345       O  0.68312373  0.76192048  0.52261750    -0.56400
O1346       O  0.61467747  0.69002408  0.96942314    -0.46500
O1347       O  0.65998519  0.75299394  0.95656046    -0.52900
C1348       C  0.66735237  0.70928652  0.91285974     0.87200
O1349       O  0.66534774  0.68088228  0.99500434    -0.54800
O1350       O  0.63525497  0.71232662  0.54996334    -0.58100
C1351       C  0.47964368  0.65464530  0.55884945     0.88500
C1352       C  0.46422618  0.65444747  0.59051462    -0.51700
C1353       C  0.43669011  0.64538189  0.58524559     0.11500
C1354       C  0.42825673  0.64061281  0.54760238     0.22400
C1355       C  0.46179153  0.62565039  0.54296036    -0.52400
C1356       C  0.43490974  0.61848705  0.53621870     0.11600
C1357       C  0.47682165  0.67435791  0.53511834    -0.52000
C1358       C  0.44986148  0.66718175  0.52887857     0.12100
H1359       H  0.47482410  0.66239490  0.61415421     0.16600
H1360       H  0.40635502  0.63489380  0.54296776     0.02400
H1361       H  0.45663135  0.60363185  0.99708525     0.17000
H1362       H  0.49479170  0.69267322  0.52459351     0.16700
In1363     In  0.65373333  0.70640272  0.74768159     1.36900
C1364       C  0.66198198  0.75761106  0.74077006     0.79600
O1365       O  0.62449780  0.68965527  0.70292790    -0.58800
O1366       O  0.60749605  0.67675664  0.75153800    -0.49700
C1367       C  0.68562499  0.68624321  0.72854045     0.72300
O1368       O  0.69368918  0.71171103  0.72590367    -0.44600
C1369       C  0.66316483  0.70514881  0.81232552     0.77000
O1370       O  0.67128509  0.74755595  0.71990222    -0.56400
O1371       O  0.63947880  0.68975781  0.79930080    -0.46500
O1372       O  0.64856946  0.74164544  0.76452292    -0.52900
C1373       C  0.60298942  0.67549730  0.72054547     0.87200
O1374       O  0.66086895  0.67110220  0.73833258    -0.54800
O1375       O  0.68216383  0.72099179  0.79240475    -0.58100
In1376     In  0.65664651  0.87469816  0.73475837     1.36900
C1377       C  0.66783922  0.88974745  0.67166905     0.79600
O1378       O  0.65991831  0.91508444  0.74725165    -0.58800
O1379       O  0.69441192  0.91081955  0.76007807    -0.49700
C1380       C  0.60668929  0.85134708  0.76233479     0.72300
O1381       O  0.61075182  0.85675889  0.73159656    -0.44600
C1382       C  0.66399857  0.83130378  0.73668041     0.77000
O1383       O  0.64374710  0.87970916  0.68368687    -0.56400
O1384       O  0.67593036  0.85121241  0.75727791    -0.46500
O1385       O  0.68635798  0.89224160  0.69182658    -0.52900
C1386       C  0.68443637  0.92649844  0.75843561     0.87200
O1387       O  0.62828235  0.85814639  0.77953470    -0.54800
O1388       O  0.64882649  0.83378095  0.71539353    -0.58100
C1389       C  0.47248548  0.63291499  0.69563223     0.88500
C1390       C  0.47970295  0.66072793  0.71139214    -0.51700
C1391       C  0.45719562  0.66294908  0.71840711     0.11500
C1392       C  0.42945921  0.63749618  0.70757522     0.22400
C1393       C  0.45161628  0.61073304  0.71964210    -0.52400
C1394       C  0.42875342  0.61294321  0.72602336     0.11600
C1395       C  0.45525448  0.62978172  0.66408887    -0.52000
C1396       C  0.43339290  0.63373335  0.66985078     0.12100
H1397       H  0.50091599  0.67707490  0.71745288     0.16600
H1398       H  0.41112938  0.63954787  0.71283073     0.02400
H1399       H  0.45503534  0.59497181  0.73029974     0.17000
H1400       H  0.45922032  0.62333215  0.64032272     0.16700
C1401       C  0.47452859  0.76195335  0.79372337     0.88500
C1402       C  0.47396679  0.73791378  0.77537190    -0.51700
C1403       C  0.44876597  0.71343575  0.77629883     0.11500
C1404       C  0.42663796  0.71553807  0.79708351     0.22400
C1405       C  0.45061066  0.76396808  0.77850136    -0.52400
C1406       C  0.42517415  0.73952163  0.77971414     0.11600
C1407       C  0.46576564  0.75172521  0.82922936    -0.52000
C1408       C  0.44076403  0.72745632  0.83166181     0.12100
H1409       H  0.49233068  0.74072135  0.76275713     0.16600
H1410       H  0.40626019  0.69567924  0.79858781     0.02400
H1411       H  0.45435376  0.78268318  0.76586516     0.17000
H1412       H  0.47910809  0.76215661  0.85058484     0.16700
C1413       C  0.22499926  0.64728259  0.79265861     0.88500
C1414       C  0.25027549  0.66805784  0.77219892    -0.51700
C1415       C  0.27333691  0.66576685  0.77646246     0.11500
C1416       C  0.26870295  0.64271768  0.80142389     0.22400
C1417       C  0.21992908  0.61873328  0.78312310    -0.52400
C1418       C  0.24283423  0.61628510  0.78705234     0.11600
C1419       C  0.23530245  0.65193140  0.82867272    -0.52000
C1420       C  0.25803875  0.64949083  0.83376576     0.12100
H1421       H  0.25006794  0.68381199  0.75660571     0.16600
H1422       H  0.28730173  0.64079186  0.80525475     0.02400
H1423       H  0.20018848  0.60211688  0.77317476     0.17000
H1424       H  0.22583074  0.65751687  0.84841631     0.16700
C1425       C  0.34707907  0.77369563  0.70861139     0.88500
C1426       C  0.32162175  0.74687657  0.72105338    -0.51700
C1427       C  0.32488746  0.72446217  0.72102791     0.11500
C1428       C  0.35346666  0.73084608  0.70793883     0.22400
C1429       C  0.37125790  0.77770776  0.73027509    -0.52400
C1430       C  0.37479404  0.75537526  0.73051725     0.11600
C1431       C  0.35287933  0.76672519  0.67392493    -0.52000
C1432       C  0.35578190  0.74398165  0.67279542     0.12100
H1433       H  0.30243807  0.74560458  0.72898514     0.16600
H1434       H  0.35601317  0.71250976  0.70749475     0.02400
H1435       H  0.38437086  0.79658389  0.74455259     0.17000
H1436       H  0.35190870  0.77732409  0.65181551     0.16700
In1437     In  0.27057011  0.88052162  0.75371119     1.36900
C1438       C  0.27418477  0.89288998  0.81790101     0.79600
O1439       O  0.30620623  0.92175318  0.73619940    -0.58800
O1440       O  0.26539953  0.91481763  0.73129160    -0.49700
C1441       C  0.29922509  0.85841197  0.73118008     0.72300
O1442       O  0.29959741  0.86496407  0.76131047    -0.44600
C1443       C  0.21938341  0.83552175  0.74778784     0.77000
O1444       O  0.29217254  0.88974569  0.80319382    -0.56400
O1445       O  0.22883386  0.85515493  0.72679406    -0.46500
O1446       O  0.25477767  0.89080296  0.79967386    -0.52900
C1447       C  0.29124794  0.93154218  0.72820821     0.87200
O1448       O  0.28455500  0.86362097  0.71190673    -0.54800
O1449       O  0.23586917  0.83897612  0.77127667    -0.58100
In1450     In  0.10405794  0.70748942  0.73824634     1.36900
C1451       C  0.09061194  0.70342351  0.67450698     0.79600
O1452       O  0.06243171  0.66961769  0.75042617    -0.58800
O1453       O  0.06864020  0.70891010  0.76396022    -0.49700
C1454       C  0.13045064  0.68271740  0.76098370     0.72300
O1455       O  0.12552852  0.68365715  0.73046494    -0.44600
C1456       C  0.14641578  0.76042175  0.74272514     0.77000
O1457       O  0.09797781  0.68793802  0.68809224    -0.56400
O1458       O  0.12961508  0.74841509  0.76654556    -0.46500
O1459       O  0.08898585  0.72033367  0.69370971    -0.52900
C1460       C  0.05198451  0.68296570  0.76218282     0.87200
O1461       O  0.12130019  0.69384143  0.78040301    -0.54800
O1462       O  0.14119785  0.74578788  0.71693470    -0.58100
In1463     In  0.10015355  0.33019500  0.76349253     1.36900
C1464       C  0.08927629  0.32098532  0.82793355     0.79600
O1465       O  0.05880952  0.32424282  0.74686830    -0.58800
O1466       O  0.06446374  0.28997372  0.74208551    -0.49700
C1467       C  0.12590256  0.38291394  0.74320313     0.72300
O1468       O  0.11725645  0.37557997  0.77256419    -0.44600
C1469       C  0.14144001  0.32015583  0.75567332     0.77000
O1470       O  0.09424661  0.34319553  0.81403194    -0.56400
O1471       O  0.12303380  0.31394243  0.73343641    -0.46500
O1472       O  0.08898812  0.30302509  0.80886714    -0.52900
C1473       C  0.04811380  0.29897976  0.73950111     0.87200
O1474       O  0.12059898  0.36323761  0.72344007    -0.54800
O1475       O  0.13902855  0.33181930  0.78115460    -0.58100
In1476     In  0.26136690  0.32091400  0.74511876     1.36900
C1477       C  0.21069644  0.31417512  0.74919023     0.79600
O1478       O  0.27529857  0.34986550  0.78977168    -0.58800
O1479       O  0.29008847  0.36686005  0.74142688    -0.49700
C1480       C  0.28097651  0.28919797  0.76691873     0.72300
O1481       O  0.25517785  0.28037277  0.76607778    -0.44600
C1482       C  0.26648499  0.31393918  0.68102129     0.77000
O1483       O  0.21963710  0.30428965  0.77097360    -0.56400
O1484       O  0.28373462  0.33560297  0.69663334    -0.46500
O1485       O  0.22716563  0.32664190  0.72547110    -0.52900
C1486       C  0.28970715  0.37130969  0.77216954     0.87200
O1487       O  0.29637620  0.31433288  0.75902214    -0.54800
O1488       O  0.24660133  0.29556673  0.69811815    -0.58100
C1489       C  0.34414781  0.50642523  0.80054638     0.88500
C1490       C  0.32415595  0.51246772  0.78145317    -0.51700
C1491       C  0.33154069  0.53986055  0.78201822     0.11500
C1492       C  0.35821308  0.55854050  0.80263119     0.22400
C1493       C  0.37288213  0.52617600  0.78569977    -0.52400
C1494       C  0.38019681  0.55347157  0.78605984     0.11600
C1495       C  0.34532099  0.51704043  0.83580156    -0.52000
C1496       C  0.35251301  0.54425229  0.83738735     0.12100
H1497       H  0.30554924  0.49625476  0.76895795     0.16600
H1498       H  0.36419234  0.58071931  0.80367159     0.02400
H1499       H  0.38563867  0.51905399  0.77415985     0.17000
H1500       H  0.34109810  0.50413932  0.85781242     0.16700
C1501       C  0.22473054  0.51467111  0.71847292     0.88500
C1502       C  0.24955436  0.51248623  0.73008048    -0.51700
C1503       C  0.27461111  0.53663268  0.72739620     0.11500
C1504       C  0.27263642  0.56090436  0.71256812     0.22400
C1505       C  0.22651782  0.53856944  0.73860393    -0.52400
C1506       C  0.25173287  0.56310679  0.73602023     0.11600
C1507       C  0.23151524  0.52531626  0.68262596    -0.52000
C1508       C  0.25679338  0.54928031  0.67885980     0.12100
H1509       H  0.24753774  0.49338352  0.73962684     0.16600
H1510       H  0.29314168  0.58049351  0.70997185     0.02400
H1511       H  0.20895432  0.53587066  0.75303099     0.17000
H1512       H  0.21858522  0.51328458  0.66162742     0.16700
C1513       C  0.31474450  0.54987349  0.76477749    -0.14400
C1514       C  0.30037632  0.53722231  0.73677743    -0.29600
H1515       H  0.31189150  0.56549084  0.77700226     0.14600
H1516       H  0.30345343  0.52161537  0.72492571     0.15200
C1517       C  0.33566680  0.47691212  0.79936297    -0.16500
C1518       C  0.32701007  0.45232372  0.79730073     0.07600
C1519       C  0.31523246  0.42342939  0.79254683     0.09500
C1520       C  0.30401755  0.39909210  0.78542289    -0.17300
C1521       C  0.19824363  0.48796593  0.72163157    -0.16500
C1522       C  0.17846405  0.46460625  0.72445375     0.07600
C1523       C  0.15762291  0.43627535  0.72865144     0.09500
C1524       C  0.14190910  0.41177853  0.73382654    -0.17300
C1525       C  0.16386077  0.31477940  0.75255526    -0.11200
C1526       C  0.18428044  0.31268646  0.75141713    -0.12800
C1527       C  0.17043790  0.78831946  0.74467875    -0.11200
C1528       C  0.19211218  0.81060368  0.74534898    -0.12800
C1529       C  0.31380018  0.84503768  0.72033829    -0.16500
C1530       C  0.32487199  0.83192480  0.71462555     0.07600
C1531       C  0.33570751  0.81431699  0.71075471     0.09500
C1532       C  0.34250080  0.79718329  0.70910518    -0.17300
C1533       C  0.24142689  0.59029222  0.77680724    -0.14400
C1534       C  0.25819130  0.58949652  0.75323032    -0.29600
H1535       H  0.22317365  0.57129997  0.78526235     0.14600
H1536       H  0.27612284  0.60885794  0.74469864     0.15200
C1537       C  0.14635031  0.67075435  0.77225191    -0.16500
C1538       C  0.16181167  0.66242914  0.77888973     0.07600
C1539       C  0.18200440  0.65491314  0.78433601     0.09500
C1540       C  0.20070805  0.65040483  0.78804220    -0.17300
C1541       C  0.30053347  0.68530687  0.76035992    -0.14400
C1542       C  0.30137068  0.69693417  0.73062676    -0.29600
H1543       H  0.31959336  0.69244811  0.77468456     0.14600
H1544       H  0.28213173  0.68967197  0.71665410     0.15200
C1545       C  0.39987329  0.73533325  0.76137656    -0.14400
C1546       C  0.39790566  0.75704777  0.75081625    -0.29600
H1547       H  0.38308125  0.71424754  0.75614699     0.14600
H1548       H  0.41375551  0.77785725  0.75855085     0.15200
C1549       C  0.40541270  0.59437096  0.74884884    -0.14400
C1550       C  0.40530365  0.57448687  0.76782457    -0.29600
H1551       H  0.38727146  0.59661832  0.74899933     0.14600
H1552       H  0.42274940  0.57122133  0.76720527     0.15200
C1553       C  0.46071092  0.68806523  0.73498252    -0.14400
C1554       C  0.44282859  0.68783544  0.75771429    -0.29600
H1555       H  0.48004359  0.70708654  0.72936721     0.14600
H1556       H  0.42359751  0.66850008  0.76319394     0.15200
C1557       C  0.50205950  0.78746270  0.79179566    -0.16500
C1558       C  0.52612086  0.80575074  0.78915879     0.07600
C1559       C  0.55487355  0.82413805  0.78376668     0.09500
C1560       C  0.57912163  0.83762785  0.77608522    -0.17300
C1561       C  0.57510935  0.65980509  0.70683286    -0.16500
C1562       C  0.55084767  0.64818085  0.69834239     0.07600
C1563       C  0.52206925  0.63744648  0.69199991     0.09500
C1564       C  0.49822892  0.63224375  0.69061805    -0.17300
C1565       C  0.66653715  0.80697650  0.73755233    -0.11200
C1566       C  0.66581933  0.78503837  0.73802746    -0.12800
C1567       C  0.41364424  0.63421962  0.64472004    -0.14400
C1568       C  0.41525041  0.63968598  0.61129253    -0.29600
H1569       H  0.39452277  0.63076297  0.65615231     0.14600
H1570       H  0.39663683  0.63839192  0.60087942     0.15200
C1571       C  0.66930000  0.70685713  0.87756039    -0.11200
C1572       C  0.66775645  0.70551329  0.84756127    -0.12800
C1573       C  0.58553272  0.68676546  0.55159363    -0.16500
C1574       C  0.56183359  0.67875997  0.55991717     0.07600
C1575       C  0.53333138  0.66983137  0.56444580     0.09500
C1576       C  0.50893245  0.66269551  0.56418436    -0.17300
C1577       C  0.67509908  0.89870334  0.60718746    -0.11200
C1578       C  0.67333089  0.89659294  0.63708123    -0.12800
C1579       C  0.67833465  0.79838084  0.49960082    -0.11200
C1580       C  0.67411039  0.81614864  0.98841607    -0.12800
C1581       C  0.42384844  0.72384628  0.88916765    -0.14400
C1582       C  0.43231798  0.71334438  0.86476892    -0.29600
H1583       H  0.41515135  0.73647934  0.88183414     0.14600
H1584       H  0.44271811  0.70231005  0.87218709     0.15200
C1585       C  0.50123048  0.78459643  0.96657593    -0.16500
C1586       C  0.52531885  0.80305867  0.96939852     0.07600
C1587       C  0.55404457  0.82293270  0.97368478     0.09500
C1588       C  0.57867433  0.83816342  0.97912276    -0.17300
C1589       C  0.44269201  0.68373099  0.50616795    -0.14400
C1590       C  0.43548630  0.68445875  0.99239495    -0.29600
H1591       H  0.42541410  0.68639691  0.51278061     0.14600
H1592       H  0.42464378  0.66545504  0.97773012     0.15200
C1593       C  0.26256684  0.63686858  0.89128937    -0.14400
C1594       C  0.27152144  0.65638894  0.86722796    -0.29600
H1595       H  0.25266983  0.61511707  0.88416135     0.14600
H1596       H  0.27989139  0.67780141  0.87513057     0.15200
C1597       C  0.36878871  0.74150048  0.61437538    -0.14400
C1598       C  0.35097251  0.72930355  0.64008862    -0.29600
H1599       H  0.39000029  0.75789632  0.62024843     0.14600
H1600       H  0.32940416  0.71374913  0.63441741     0.15200
C1601       C  0.40978222  0.76222053  0.51146522    -0.14400
C1602       C  0.39880061  0.73781717  0.99383854    -0.29600
H1603       H  0.41393971  0.78066088  0.99842261     0.14600
H1604       H  0.39326980  0.72059932  0.49654265     0.15200
C1605       C  0.31791312  0.69523681  0.51039468    -0.14400
C1606       C  0.30185792  0.68139284  0.99544421    -0.29600
H1607       H  0.30913886  0.67678897  0.52602908     0.14600
H1608       H  0.31965296  0.69090097  0.97871542     0.15200
C1609       C  0.27490853  0.89674292  0.85324497    -0.11200
C1610       C  0.27442425  0.89646480  0.88327566    -0.12800
C1611       C  0.31961028  0.84505750  0.52513672    -0.16500
C1612       C  0.32821343  0.82965657  0.53048320     0.07600
C1613       C  0.33645505  0.80988951  0.53419074     0.09500
C1614       C  0.34253333  0.79224267  0.53663010    -0.17300
C1615       C  0.08807123  0.70487487  0.60924191    -0.11200
C1616       C  0.08667891  0.70326757  0.63920099    -0.12800
C1617       C  0.15232528  0.67968162  0.98265847    -0.16500
C1618       C  0.16807309  0.67159903  0.97653376     0.07600
C1619       C  0.18748761  0.66301141  0.97118344     0.09500
C1620       C  0.20473034  0.65641775  0.96764365    -0.17300
C1621       C  0.17844228  0.79551419  0.50084795    -0.11200
C1622       C  0.20040866  0.81738649  0.49955144    -0.12800
C1623       C  0.35503491  0.55738122  0.87054445    -0.14400
C1624       C  0.33308448  0.54507216  0.89142218    -0.29600
H1625       H  0.37593681  0.56961123  0.88095026     0.14600
H1626       H  0.31268840  0.53164574  0.88007975     0.15200
C1627       C  0.41501879  0.59224303  0.51851633    -0.14400
C1628       C  0.39904658  0.57327301  0.98172799    -0.29600
H1629       H  0.38248391  0.59349250  0.00865199     0.14600
H1630       H  0.39101360  0.60724734  0.49667760     0.15200
C1631       C  0.25915341  0.56260263  0.61953713    -0.14400
C1632       C  0.26999266  0.55555598  0.64519084    -0.29600
H1633       H  0.24624677  0.57132209  0.62520456     0.14600
H1634       H  0.28211232  0.54595812  0.63956132     0.15200
C1635       C  0.23367359  0.58767852  0.98979062    -0.14400
C1636       C  0.23320612  0.58092524  0.51959226    -0.29600
H1637       H  0.21247584  0.57002873  0.98905956     0.14600
H1638       H  0.21228101  0.57750557  0.51914054     0.15200
C1639       C  0.31054625  0.55225337  0.00112899    -0.14400
C1640       C  0.29812697  0.55450200  0.51402013    -0.29600
H1641       H  0.27935938  0.52880450  0.47209405     0.14600
H1642       H  0.31731598  0.56832974  0.52745857     0.15200
C1643       C  0.27038470  0.31180244  0.61597587    -0.11200
C1644       C  0.26878379  0.31114119  0.64592287    -0.12800
C1645       C  0.29980182  0.39730836  0.98408728    -0.16500
C1646       C  0.30848295  0.42154813  0.97880323     0.07600
C1647       C  0.31761610  0.44993087  0.97467900     0.09500
C1648       C  0.32488608  0.47407819  0.97143737    -0.17300
C1649       C  0.08626246  0.31670915  0.89322838    -0.11200
C1650       C  0.08581802  0.31720749  0.86322961    -0.12800
C1651       C  0.14824748  0.40578990  0.52848954    -0.16500
C1652       C  0.16376538  0.42986651  0.53569905     0.07600
C1653       C  0.18343145  0.45816801  0.54182331     0.09500
C1654       C  0.20115240  0.48229551  0.54549846    -0.17300
C1655       C  0.16392291  0.30733944  0.00566800    -0.11200
C1656       C  0.18457690  0.30572706  0.00717856    -0.12800
C1657       C  0.99847888  0.66354734  0.97740922    -0.11200
C1658       C  0.02365875  0.67562730  0.97846763    -0.12800
C1659       C  0.87126214  0.54403804  0.96834899    -0.16500
C1660       C  0.85498046  0.51996388  0.96144277     0.07600
C1661       C  0.83475688  0.49145093  0.95672977     0.09500
C1662       C  0.81687793  0.46712392  0.95463119    -0.17300
C1663       C  0.72051196  0.67265634  0.52983451    -0.11200
C1664       C  0.70779050  0.68472923  0.53027939    -0.12800
C1665       C  0.85486755  0.64029344  0.00005003    -0.11200
C1666       C  0.83678253  0.64619276  0.50559928    -0.12800
C1667       C  0.71786027  0.54641774  0.52834708    -0.16500
C1668       C  0.70797213  0.52179064  0.53299071     0.07600
C1669       C  0.69790995  0.49297432  0.53617409     0.09500
C1670       C  0.69101426  0.46875567  0.53827717    -0.17300
C1671       C  0.72140401  0.39505883  0.99253178    -0.14400
C1672       C  0.71995575  0.40078231  0.50928296    -0.29600
H1673       H  0.70185085  0.38419438  0.97874784     0.14600
H1674       H  0.72765985  0.39015050  0.52459869     0.15200
C1675       C  0.62183098  0.35160817  0.99949027    -0.14400
C1676       C  0.62446328  0.36748689  0.51889762    -0.29600
H1677       H  0.63943404  0.34861008  0.99722540     0.14600
H1678       H  0.60654018  0.36978385  0.52177592     0.15200
C1679       C  0.58856328  0.25409883  0.50541277    -0.14400
C1680       C  0.57591684  0.25996020  0.97490805    -0.29600
H1681       H  0.59666866  0.27692845  0.02074224     0.14600
H1682       H  0.55791788  0.23272320  0.46861118     0.15200
C1683       C  0.32511650  0.99127629  0.51884659    -0.11200
C1684       C  0.31352765  0.96616808  0.51945361    -0.12800
C1685       C  0.44684560  0.11082758  0.53445726    -0.16500
C1686       C  0.47097438  0.12402721  0.54314272     0.07600
C1687       C  0.49985453  0.14170305  0.54929084     0.09500
C1688       C  0.52445104  0.15883717  0.55103275    -0.17300
C1689       C  0.30816230  0.25917939  0.98072299    -0.11200
C1690       C  0.29517527  0.27093617  0.98114851    -0.12800
C1691       C  0.51806179  0.30271589  0.97482900    -0.16500
C1692       C  0.49401501  0.29613696  0.97837629     0.07600
C1693       C  0.46510823  0.28551737  0.98180358     0.09500
C1694       C  0.44029218  0.27460707  0.98599840    -0.17300
C1695       C  0.35064300  0.15438443  0.99411966    -0.11200
C1696       C  0.35188123  0.13370847  0.99002465    -0.12800
C1697       C  0.99885205  0.27510748  0.52596220    -0.11200
C1698       C  0.02389831  0.28575988  0.52515425    -0.12800
C1699       C  0.70690620  0.96136757  0.98047880    -0.11200
C1700       C  0.71939509  0.98646955  0.98073841    -0.12800
C1701       C  0.85124880  0.15848745  0.00294478    -0.11200
C1702       C  0.83049782  0.13575883  0.00458447    -0.12800
C1703       C  0.77735384  0.35930139  0.50983128    -0.14400
C1704       C  0.78728264  0.36886986  0.98027383    -0.29600
H1705       H  0.75612145  0.35508414  0.50868275     0.14600
H1706       H  0.80813074  0.37279156  0.97637533     0.15200
C1707       C  0.83049325  0.31192047  0.54308350    -0.16500
C1708       C  0.84861707  0.30640116  0.54004328     0.07600
C1709       C  0.86716818  0.29663985  0.53460745     0.09500
C1710       C  0.88104037  0.28640552  0.52802157    -0.17300
C1711       C  0.62383833  0.18809818  0.98447814    -0.14400
C1712       C  0.62057982  0.19291815  0.51110354    -0.29600
H1713       H  0.60502896  0.16816294  0.98037979     0.14600
H1714       H  0.61695997  0.17203920  0.51221071     0.15200
C1715       C  0.71560227  0.10669032  0.97084614    -0.16500
C1716       C  0.70641374  0.12123513  0.96331924     0.07600
C1717       C  0.69672117  0.13971302  0.95808715     0.09500
C1718       C  0.68966248  0.15663252  0.95569188    -0.17300
C1719       C  0.71601424  0.25301056  0.98920693    -0.14400
C1720       C  0.73106175  0.26911417  0.50952389    -0.29600
H1721       H  0.72023556  0.27200321  0.97674559     0.14600
H1722       H  0.71051977  0.26194615  0.51985249     0.15200
C1723       C  0.76285510  0.38210804  0.86179551    -0.14400
C1724       C  0.74860342  0.38764480  0.88443570    -0.29600
H1725       H  0.77956140  0.37939233  0.87117991     0.14600
H1726       H  0.73373651  0.39308874  0.87523648     0.15200
C1727       C  0.99731351  0.65727086  0.76974136    -0.11200
C1728       C  0.02259713  0.66959324  0.76984091    -0.12800
C1729       C  0.93348890  0.63505927  0.63929405    -0.11200
C1730       C  0.93493173  0.63739936  0.60933262    -0.12800
C1731       C  0.81606827  0.45709026  0.77944238    -0.16500
C1732       C  0.83454266  0.48103231  0.77613318     0.07600
C1733       C  0.85487095  0.50953963  0.77213983     0.09500
C1734       C  0.87091448  0.53397708  0.76708565    -0.17300
C1735       C  0.71681746  0.66359063  0.72624551    -0.11200
C1736       C  0.70369618  0.67522248  0.72387556    -0.12800
C1737       C  0.74582833  0.63182487  0.86081403    -0.11200
C1738       C  0.74636732  0.63248676  0.89085226    -0.12800
C1739       C  0.85047267  0.62898967  0.75211002    -0.11200
C1740       C  0.82917104  0.62956956  0.75421538    -0.12800
C1741       C  0.66351619  0.38443972  0.63577051    -0.14400
C1742       C  0.68522244  0.39637828  0.61448640    -0.29600
H1743       H  0.64244746  0.37371794  0.62564092     0.14600
H1744       H  0.70597859  0.40860132  0.62537431     0.15200
C1745       C  0.68121820  0.45972834  0.71542899    -0.16500
C1746       C  0.68878628  0.48401776  0.71881277     0.07600
C1747       C  0.69916773  0.51273687  0.72358127     0.09500
C1748       C  0.70933574  0.53722278  0.72943645    -0.17300
C1749       C  0.70387067  0.38658283  0.74140808    -0.14400
C1750       C  0.71368826  0.39447164  0.77272955    -0.29600
H1751       H  0.71208371  0.37681202  0.72551712     0.14600
H1752       H  0.70556440  0.40476675  0.78784098     0.15200
C1753       C  0.58799068  0.30536996  0.86701872    -0.14400
C1754       C  0.58930454  0.32439993  0.88865397    -0.29600
H1755       H  0.58852531  0.28748948  0.87640720     0.14600
H1756       H  0.58753111  0.34129992  0.87808867     0.15200
C1757       C  0.61102316  0.33937456  0.75506078    -0.14400
C1758       C  0.61180302  0.35948111  0.73573690    -0.29600
H1759       H  0.62989801  0.33857819  0.75808420     0.14600
H1760       H  0.59384215  0.36188033  0.73419402     0.15200
C1761       C  0.60805956  0.23996037  0.64051393    -0.14400
C1762       C  0.61120751  0.23779098  0.60694604    -0.29600
H1763       H  0.62588064  0.25782915  0.65217764     0.14600
H1764       H  0.63069099  0.25492011  0.59728449     0.15200
C1765       C  0.56591267  0.24680655  0.77385174    -0.14400
C1766       C  0.58218871  0.25028909  0.74736241    -0.29600
H1767       H  0.54934873  0.22589946  0.78033064     0.14600
H1768       H  0.59875763  0.27098853  0.74022150     0.15200
C1769       C  0.30508892  0.25965384  0.77302262    -0.11200
C1770       C  0.29243146  0.27178636  0.77351190    -0.12800
C1771       C  0.34592615  0.23824735  0.64125625    -0.11200
C1772       C  0.34724947  0.23895101  0.61128104    -0.12800
C1773       C  0.43312204  0.26734368  0.77990617    -0.16500
C1774       C  0.45752084  0.27638933  0.78603179     0.07600
C1775       C  0.48610431  0.28514596  0.79012236     0.09500
C1776       C  0.50998004  0.29058557  0.79239449    -0.17300
C1777       C  0.31538198  0.98543113  0.71741485    -0.11200
C1778       C  0.30319881  0.96033590  0.71909234    -0.12800
C1779       C  0.35310461  0.05411927  0.87353649    -0.11200
C1780       C  0.35291184  0.05425193  0.84344477    -0.12800
C1781       C  0.43662780  0.11169018  0.69727878    -0.16500
C1782       C  0.46052754  0.12750919  0.68914852     0.07600
C1783       C  0.48920074  0.14738932  0.68467898     0.09500
C1784       C  0.51378446  0.16483047  0.68509923    -0.17300
C1785       C  0.34058497  0.15034059  0.74046605    -0.11200
C1786       C  0.34152108  0.12934346  0.73950657    -0.12800
C1787       C  0.99359858  0.26786319  0.73158651    -0.11200
C1788       C  0.01883541  0.28138753  0.73182341    -0.12800
C1789       C  0.93133846  0.23759582  0.89153818    -0.11200
C1790       C  0.93036062  0.23619763  0.86157105    -0.12800
C1791       C  0.70025378  0.95590431  0.76562706    -0.11200
C1792       C  0.71171411  0.98102313  0.76522125    -0.12800
C1793       C  0.74289604  0.04978580  0.63542218    -0.11200
C1794       C  0.74454009  0.05124166  0.60541823    -0.12800
C1795       C  0.84449747  0.15159088  0.75441848    -0.11200
C1796       C  0.82248387  0.12987700  0.75178290    -0.12800
C1797       C  0.74958525  0.29342081  0.63559364    -0.14400
C1798       C  0.76062991  0.31595853  0.61569818    -0.29600
H1799       H  0.74147829  0.27333118  0.62348765     0.14600
H1800       H  0.77113372  0.33633989  0.62748651     0.15200
C1801       C  0.78275469  0.35386274  0.73019298    -0.14400
C1802       C  0.76440276  0.35423864  0.75155182    -0.29600
H1803       H  0.80268375  0.37256486  0.72559286     0.14600
H1804       H  0.74536181  0.33481424  0.75740761     0.15200
C1805       C  0.81686362  0.28881500  0.71199059    -0.16500
C1806       C  0.83496448  0.28332438  0.71477679     0.07600
C1807       C  0.85499713  0.27544582  0.71930473     0.09500
C1808       C  0.87072267  0.26734934  0.72555042    -0.17300
C1809       C  0.65474058  0.20339736  0.86202231    -0.14400
C1810       C  0.67548922  0.22007586  0.88320692    -0.29600
H1811       H  0.63587564  0.18633706  0.87300800     0.14600
H1812       H  0.69545101  0.23564017  0.87276290     0.15200
C1813       C  0.62596862  0.20218333  0.75111289    -0.14400
C1814       C  0.60632791  0.18512893  0.72885283    -0.29600
H1815       H  0.62834170  0.22225227  0.75643775     0.14600
H1816       H  0.60235899  0.16431502  0.72468848     0.15200
C1817       C  0.67184123  0.14679013  0.78133319    -0.16500
C1818       C  0.67847972  0.12956913  0.77796700     0.07600
C1819       C  0.68946291  0.11201465  0.77339161     0.09500
C1820       C  0.70050869  0.09878964  0.76764961    -0.17300
C1821       C  0.71837113  0.24881182  0.77337295    -0.14400
C1822       C  0.71936120  0.26055674  0.74363577    -0.29600
H1823       H  0.73768268  0.25518789  0.78678941     0.14600
H1824       H  0.70024351  0.25418486  0.72976106     0.15200
loop_ 
_geom_bond_atom_site_label_1 
_geom_bond_atom_site_label_2 
_geom_bond_distance 
_geom_bond_site_symmetry_2 
_ccdc_geom_bond_type 
C1            C2   1.521       .  S
C1            C7   1.525       .  S
C1            C5   1.532       .  S
C1          C905   1.472       .  S
C2            H9   1.086       .  S
C2            C3   1.363       .  D
C3            C4   1.556       .  S
C3          C897   1.486       .  S
C4            C8   1.547       .  S
C4            C6   1.551       .  S
C4           H10   1.111       .  S
C5           H11   1.084       .  S
C5            C6   1.375       .  D
C6          C901   1.494       .  S
C7           H12   1.087       .  S
C7            C8   1.363       .  D
C8          C909   1.477       .  S
C13          C14   1.523       .  S
C13          C19   1.525       .  S
C13          C17   1.531       .  S
C13         C893   1.468       .  S
C14          H21   1.086       .  S
C14          C15   1.365       .  D
C15          C16   1.558       .  S
C15         C885   1.490       .  S
C16          C20   1.549       .  S
C16          C18   1.547       .  S
C16          H22   1.110       .  S
C17          H23   1.087       .  S
C17          C18   1.366       .  D
C18         C889   1.481       .  S
C19          H24   1.087       .  S
C19          C20   1.368       .  D
C20         C910   1.489       .  S
In25         O27   2.222       .  S
In25         O28   2.263       .  S
In25         O36   2.268       .  S
In25         O30   2.237       .  S
In25         O32   2.239       .  S
In25         O33   2.257       .  S
In25         O34   2.235       .  S
In25         O37   2.247       .  S
C26          O32   1.259       .  A
C26          O34   1.259       .  A
C26         C881   1.428       .  S
O27          C35   1.256       .  A
O28          C35   1.263       .  A
C29          O36   1.262       .  A
C29          O30   1.257       .  A
C29         C908   1.439       .  S
C31          O33   1.258       .  A
C31          O37   1.258       .  A
C31         C880   1.437   1_545  S
C35         C884   1.432       .  S
In38         O40   2.235       .  S
In38         O41   2.257       .  S
In38         O49   2.257       .  S
In38         O43   2.229       .  S
In38         O45   2.228       .  S
In38         O46   2.257       .  S
In38         O47   2.237       .  S
In38         O50   2.247       .  S
C39          O45   1.259       .  A
C39          O47   1.260       .  A
C39         C878   1.425       .  S
O40          C48   1.255       .  A
O41          C48   1.261       .  A
C42          O49   1.262       .  A
C42          O43   1.257       .  A
C42         C896   1.434       .  S
C44          O46   1.258       .  A
C44          O50   1.257       .  A
C44         C875   1.436   1_655  S
C48         C883   1.432       .  S
In51         O53   2.236       .  S
In51         O54   2.267       .  S
In51         O62   2.264       .  S
In51         O56   2.230       .  S
In51         O58   2.232       .  S
In51         O59   2.274       .  S
In51         O60   2.246       .  S
In51         O63   2.239       .  S
C52          O58   1.258       .  A
C52          O60   1.259       .  A
C52         C868   1.429       .  S
O53          C61   1.257       .  A
O54          C61   1.264       .  A
C55          O62   1.263       .  A
C55          O56   1.258       .  A
C55         C869   1.437       .  S
C57          O59   1.261       .  A
C57          O63   1.256       .  A
C57         C865   1.439   1_545  S
C61         C874   1.439       .  S
In64         O66   2.251       .  S
In64         O67   2.239       .  S
In64         O75   2.244       .  S
In64         O69   2.263       .  S
In64         O71   2.263       .  S
In64         O72   2.245       .  S
In64         O73   2.234       .  S
In64         O76   2.262       .  S
C65          O71   1.263       .  A
C65          O73   1.257       .  A
C65         C873   1.438       .  S
O66          C74   1.258       .  A
O67          C74   1.259       .  A
C68          O75   1.257       .  A
C68          O69   1.259       .  A
C68         C857   1.436       .  S
C70          O72   1.259       .  A
C70          O76   1.261       .  A
C70         C861   1.440       .  S
C74         C859   1.432       .  S
C77          C78   1.520       .  S
C77          C83   1.521       .  S
C77          C81   1.532       .  S
C77         C872   1.471       .  S
C78          H85   1.083       .  S
C78          C79   1.366       .  D
C79          C80   1.556       .  S
C79         C849   1.493       .  S
C80          C84   1.550       .  S
C80          C82   1.548       .  S
C80          H86   1.110       .  S
C81          H87   1.086       .  S
C81          C82   1.369       .  D
C82         C902   1.485       .  S
C83          H88   1.086       .  S
C83          C84   1.368       .  D
C84         C854   1.490       .  S
C89          C90   1.523       .  S
C89          C95   1.528       .  S
C89          C93   1.528       .  S
C89         C864   1.474       .  S
C90          H97   1.085       .  S
C90          C91   1.367       .  D
C91          C92   1.555       .  S
C91         C841   1.493       .  S
C92          C96   1.540       .  S
C92          C94   1.551       .  S
C92          H98   1.111       .  S
C93          H99   1.084       .  S
C93          C94   1.375       .  D
C94         C845   1.493       .  S
C95         H100   1.087       .  S
C95          C96   1.363       .  D
C96         C853   1.474       .  S
C101        C102   1.523       .  S
C101        C107   1.529       .  S
C101        C105   1.527       .  S
C101        C833   1.469       .  S
C102        H109   1.086       .  S
C102        C103   1.362       .  D
C103        C104   1.552       .  S
C103        C829   1.484       .  S
C104        C108   1.544       .  S
C104        C106   1.548       .  S
C104        H110   1.111       .  S
C105        H111   1.087       .  S
C105        C106   1.367       .  D
C106        C846   1.475       .  S
C107        H112   1.087       .  S
C107        C108   1.369       .  D
C108        C837   1.484       .  S
In113       O115   2.233       .  S
In113       O116   2.222       .  S
In113       O124   2.242       .  S
In113       O118   2.267       .  S
In113       O120   2.265       .  S
In113       O121   2.233       .  S
In113       O122   2.241       .  S
In113       O125   2.263       .  S
C114        O120   1.263       .  A
C114        O122   1.257       .  A
C114        C828   1.439       .  S
O115        C123   1.260       .  A
O116        C123   1.260       .  A
C117        O124   1.257       .  A
C117        O118   1.261       .  A
C117        C823   1.441       .  S
C119        O121   1.256       .  A
C119        O125   1.262       .  A
C119        C836   1.436       .  S
C123        C825   1.423       .  S
In126       O128   2.242       .  S
In126       O129   2.269       .  S
In126       O137   2.256       .  S
In126       O131   2.231       .  S
In126       O133   2.237       .  S
In126       O134   2.271       .  S
In126       O135   2.245       .  S
In126       O138   2.245       .  S
C127        O133   1.259       .  A
C127        O135   1.261       .  A
C127        C817   1.432       .  S
O128        C136   1.256       .  A
O129        C136   1.262       .  A
C130        O137   1.261       .  A
C130        O131   1.256       .  A
C130        C822   1.432       .  S
C132        O134   1.259       .  A
C132        O138   1.256       .  A
C132        C815   1.439   1_655  S
C136        C827   1.439       .  S
C139        C140   1.522       .  S
C139        C145   1.524       .  S
C139        C143   1.529       .  S
C139        C819   1.465       .  S
C140        H147   1.086       .  S
C140        C141   1.364       .  D
C141        C142   1.551       .  S
C141        C811   1.483       .  S
C142        C146   1.544       .  S
C142        C144   1.550       .  S
C142        H148   1.111       .  S
C143        H149   1.085       .  S
C143        C144   1.373       .  D
C144        C890   1.489       .  S
C145        H150   1.087       .  S
C145        C146   1.361       .  D
C146        C838   1.473       .  S
C151        C152   1.526       .  S
C151        C157   1.523       .  S
C151        C155   1.530       .  S
C151        C806   1.472       .  S
C152        H159   1.087       .  S
C152        C153   1.360       .  D
C153        C154   1.538       .  S
C153        C807   1.469       .  S
C154        C158   1.554       .  S
C154        C156   1.547       .  S
C154        H160   1.111       .  S
C155       H1073   1.083       .  S
C155        C156   1.378       .  D
C156        C799   1.494       .  S
C157        H162   1.085       .  S
C157        C158   1.367       .  D
C158        C898   1.493       .  S
H161       C1067   1.087       .  S
C163        C164   1.525       .  S
C163        C169   1.524       .  S
C163        C167   1.527       .  S
C163        C795   1.467       .  S
C164        H171   1.088       .  S
C164        C165   1.358       .  D
C165        C166   1.540       .  S
C165        C808   1.471       .  S
C166        C170   1.558       .  S
C166        C168   1.557       .  S
C166        H172   1.111       .  S
C167       H1085   1.083   1_554  S
C167        C168   1.377       .  D
C168        C791   1.502       .  S
C169        H174   1.085       .  S
C169        C170   1.366       .  D
C170        C886   1.493       .  S
H173       C1079   1.083       .  S
In175       O177   2.242   1_554  S
In175       O180   2.231       .  S
In175       O182   2.233       .  S
In175       O184   2.238       .  S
In175       O187   2.228       .  S
In175      O1090   2.261   1_554  S
In175      O1098   2.255   1_554  S
In175      O1095   2.259   1_554  S
C176        O182   1.260       .  A
C176        O184   1.260       .  A
C176        C882   1.428       .  S
O177       C1097   1.257       .  A
O178      In1087   2.263       .  S
O178        C185   1.259       .  A
C179        O186   1.263       .  A
C179       O1092   1.258       .  A
C179        C803   1.438       .  S
O180       C1091   1.259   1_554  A
C181        O183   1.262       .  A
C181       O1099   1.257       .  A
C181        C790   1.439       .  S
O183      In1087   2.268       .  S
C185       O1089   1.257       .  A
C185        C788   1.437   1_545  S
O186      In1087   2.264       .  S
O187       C1093   1.255       .  A
In188       O190   2.252       .  S
In188       O193   2.245       .  S
In188       O195   2.236       .  S
In188       O197   2.240       .  S
In188       O200   2.244       .  S
In188      O1103   2.261       .  S
In188      O1111   2.268       .  S
In188      O1108   2.263       .  S
C189        O195   1.258       .  A
C189        O197   1.257       .  A
C189        C877   1.426       .  S
O190       C1110   1.257       .  A
O191      In1100   2.255   1_554  S
O191        C198   1.259       .  A
C192        O199   1.261       .  A
C192       O1105   1.256   1_554  A
C192        C798   1.434       .  S
O193       C1104   1.258       .  A
C194        O200   1.258       .  A
C194       O1108   1.262       .  A
C194        C789   1.440       .  S
O196      In1100   2.261   1_554  S
O196       C1106   1.261   1_554  A
C198       O1102   1.258   1_554  A
C198        C785   1.435       .  S
O199      In1100   2.261   1_554  S
In201       O204   2.232       .  S
In201       O212   2.249   1_554  S
In201       O209   2.231       .  S
In201       O210   2.240       .  S
In201       O213   2.252       .  S
In201      O1115   2.262   1_554  S
In201      O1118   2.269   1_554  S
In201      O1120   2.269   1_554  S
C202        O208   1.264       .  A
C202       O1122   1.256       .  A
C202        C783   1.442       .  S
O203      In1113   2.261       .  S
O203        C211   1.263       .  A
O204       C1123   1.257   1_554  A
C205        O206   1.261       .  A
C205       O1124   1.257       .  A
C205        C777   1.440       .  S
O206      In1113   2.267       .  S
C207        O209   1.258       .  A
C207        O213   1.260       .  A
C207        C860   1.431       .  S
O208      In1113   2.275       .  S
O210       C1114   1.257       .  A
C211       O1116   1.258       .  A
C211        C782   1.439       .  S
O212       C1117   1.256       .  A
In214       O216   2.237       .  S
In214       O219   2.238       .  S
In214       O221   2.230       .  S
In214       O223   2.242       .  S
In214       O226   2.242       .  S
In214      O1129   2.272       .  S
In214      O1137   2.263       .  S
In214      O1134   2.270       .  S
C215        O221   1.260       .  A
C215        O223   1.260       .  A
C215        C867   1.429       .  S
O216       C1136   1.257       .  A
O217      In1126   2.267       .  S
O217        C224   1.259       .  A
C218        O225   1.261   1_556  A
C218       O1131   1.258       .  A
C218        C773   1.434   1_556  S
O219       C1130   1.257       .  A
C220        O226   1.257       .  A
C220       O1134   1.264       .  A
C220        C784   1.442       .  S
O222      In1126   2.267   1_554  S
O222       C1132   1.261   1_554  A
C224       O1128   1.256       .  A
C224        C771   1.439   1_546  S
O225      In1126   2.254   1_554  S
C227        C228   1.528       .  S
C227        C233   1.519       .  S
C227        C231   1.522       .  S
C227        C776   1.467       .  S
C228        H235   1.087       .  S
C228        C229   1.368       .  D
C229        C230   1.540       .  S
C229        C767   1.482       .  S
C230        C234   1.555       .  S
C230        C232   1.554       .  S
C230        H236   1.111       .  S
C231       H1149   1.082       .  S
C231        C232   1.375       .  D
C232        C800   1.496       .  S
C233        H238   1.084       .  S
C233        C234   1.363       .  D
C234        C850   1.488       .  S
H237       C1143   1.087       .  S
C239        C240   1.523       .  S
C239        C245   1.522       .  S
C239        C243   1.531       .  S
C239        C779   1.473       .  S
C240        H247   1.087       .  S
C240        C241   1.361       .  D
C241        C242   1.549       .  S
C241        C768   1.478       .  S
C242        C246   1.557       .  S
C242        C244   1.552       .  S
C242        H248   1.111       .  S
C243       H1161   1.083       .  S
C243        C244   1.377       .  D
C244        C763   1.501       .  S
C245        H250   1.086       .  S
C245        C246   1.364       .  D
C246        C842   1.487       .  S
H249       C1155   1.084   1_554  S
C251        C252   1.525       .  S
C251        C257   1.523       .  S
C251        C255   1.525       .  S
C251        C758   1.469       .  S
C252        H259   1.087       .  S
C252        C253   1.365       .  D
C253        C254   1.550       .  S
C253        C760   1.478       .  S
C254        C258   1.557       .  S
C254        C256   1.553       .  S
C254        H260   1.110       .  S
C255       H1173   1.087       .  S
C255        C256   1.365       .  D
C256        C764   1.484       .  S
C257        H262   1.086       .  S
C257        C258   1.367       .  D
C258        C830   1.489       .  S
H261       C1167   1.087       .  S
In263       O266   2.237       .  S
In263       O274   2.250       .  S
In263       O271   2.223       .  S
In263       O272   2.237       .  S
In263       O275   2.236       .  S
In263      O1177   2.272       .  S
In263      O1180   2.273       .  S
In263      O1182   2.276       .  S
C264        O270   1.262   1_556  A
C264       O1184   1.256       .  A
C264        C754   1.438       .  S
O265      In1175   2.258   1_554  S
O265        C273   1.262       .  A
O266       C1185   1.256       .  A
C267        O268   1.260       .  A
C267       O1186   1.257       .  A
C267        C751   1.437       .  S
O268      In1175   2.262   1_554  S
C269        O271   1.259       .  A
C269        O275   1.260       .  A
C269        C826   1.423       .  S
O270      In1175   2.268   1_554  S
O272       C1176   1.255       .  A
C273       O1178   1.258   1_554  A
C273        C755   1.435       .  S
O274       C1179   1.256       .  A
In276       O278   2.242   1_554  S
In276       O281   2.237       .  S
In276       O283   2.237       .  S
In276       O285   2.253       .  S
In276       O288   2.236       .  S
In276      O1191   2.267   1_554  S
In276      O1199   2.265   1_554  S
In276      O1196   2.268   1_554  S
C277        O283   1.259       .  A
C277        O285   1.260       .  A
C277        C818   1.433       .  S
O278       C1198   1.257       .  A
O279      In1188   2.278       .  S
O279        C286   1.261       .  A
C280        O287   1.263       .  A
C280       O1193   1.257       .  A
C280        C747   1.433       .  S
O281       C1192   1.257   1_554  A
C282        O284   1.264       .  A
C282       O1200   1.255       .  A
C282        C753   1.440       .  S
O284      In1188   2.277       .  S
C286       O1190   1.256       .  A
C286        C745   1.444   1_655  S
O287      In1188   2.261       .  S
O288       C1194   1.257       .  A
C289        C290   1.526       .  S
C289        C295   1.521       .  S
C289        C293   1.522       .  S
C289        C750   1.467       .  S
C290        H297   1.087       .  S
C290        C291   1.364       .  D
C291        C292   1.545       .  S
C291        C759   1.475       .  S
C292        C296   1.554       .  S
C292        C294   1.557       .  S
C292        H298   1.110       .  S
C293       H1211   1.087       .  S
C293        C294   1.365       .  D
C294        C792   1.483       .  S
C295        H300   1.085       .  S
C295        C296   1.367       .  D
C296        C812   1.489       .  S
H299       C1205   1.087       .  S
In301       O303   2.233       .  S
In301       O306   2.230       .  S
In301       O308   2.223       .  S
In301       O310   2.241       .  S
In301       O313   2.237       .  S
In301      O1216   2.263       .  S
In301      O1224   2.250       .  S
In301      O1221   2.267       .  S
C302        O308   1.258       .  A
C302        O310   1.259       .  A
C302        C737   1.424       .  S
O303       C1223   1.257       .  A
O304      In1213   2.270   1_554  S
O304        C311   1.262       .  A
C305        O312   1.262       .  A
C305       O1218   1.256   1_554  A
C305        C739   1.432       .  S
O306       C1217   1.258       .  A
C307        O309   1.260       .  A
C307       O1225   1.256       .  A
C307        C786   1.435       .  S
O309      In1213   2.264   1_554  S
C311       O1215   1.254   1_554  A
C311       C1655   1.436       .  S
O312      In1213   2.258   1_554  S
O313       C1219   1.256       .  A
In314       O316   2.241       .  S
In314       O317   2.229       .  S
In314       O325   2.245   1_554  S
In314       O322   2.229       .  S
In314       O323   2.230       .  S
In314      O1231   2.267   1_554  S
In314      O1233   2.264   1_554  S
In314      O1238   2.254   1_554  S
C315        O321   1.262       .  A
C315       O1235   1.256       .  A
C315        C744   1.437       .  S
O316        C324   1.260       .  A
O317        C324   1.259       .  A
C318        O319   1.260       .  A
C318       O1237   1.256       .  A
C318        C778   1.441       .  S
O319      In1226   2.270       .  S
C320        O326   1.262       .  A
C320       O1234   1.256       .  A
C320        C733   1.440       .  S
O321      In1226   2.267       .  S
O322       C1232   1.257   1_554  A
O323       C1227   1.256       .  A
C324        C731   1.428       .  S
O325       C1230   1.256       .  A
O326      In1226   2.266       .  S
C327        C328   1.522       .  S
C327        C333   1.523       .  S
C327        C331   1.530       .  S
C327        C742   1.466       .  S
C328        H335   1.087       .  S
C328        C329   1.363       .  D
C329        C330   1.556       .  S
C329        C719   1.488       .  S
C330        C334   1.545       .  S
C330        C332   1.551       .  S
C330        H336   1.111       .  S
C331       H1249   1.084       .  S
C331        C332   1.374       .  D
C332        C724   1.491       .  S
C333        H338   1.087       .  S
C333        C334   1.362       .  D
C334        C728   1.473       .  S
H337       C1243   1.087       .  S
C339        C340   1.527       .  S
C339        C345   1.528       .  S
C339        C343   1.531       .  S
C339        C736   1.474       .  S
C340        H347   1.084       .  S
C340        C341   1.367       .  D
C341        C342   1.550       .  S
C341        C712   1.489       .  S
C342        C346   1.538       .  S
C342        C344   1.551       .  S
C342        H348   1.111       .  S
C343       H1261   1.084       .  S
C343        C344   1.376       .  D
C344        C716   1.492       .  S
C345        H350   1.087       .  S
C345        C346   1.361       .  D
C346        C727   1.473       .  S
H349       C1255   1.087       .  S
In351       O353   2.238       .  S
In351       O354   2.246       .  S
In351       O362   2.260   1_554  S
In351       O359   2.239       .  S
In351       O360   2.244       .  S
In351      O1268   2.260   1_554  S
In351      O1270   2.269   1_554  S
In351      O1275   2.263   1_554  S
C352        O360   1.256       .  A
C352       O1270   1.261   1_554  A
C352        C709   1.439       .  S
O353        C361   1.260       .  A
O354        C361   1.260       .  A
C355        O356   1.259       .  A
C355       O1274   1.258       .  A
C355        C746   1.444       .  S
O356      In1263   2.268       .  S
C357        O363   1.263       .  A
C357       O1271   1.257       .  A
C357        C705   1.440       .  S
O358      In1263   2.271       .  S
O358       C1264   1.264       .  A
O359       C1269   1.257   1_554  A
C361        C703   1.432       .  S
O362       C1267   1.257       .  A
O363      In1263   2.267       .  S
In364       O366   2.243       .  S
In364       O369   2.233       .  S
In364       O371   2.222       .  S
In364       O373   2.237       .  S
In364       O376   2.250       .  S
In364      O1279   2.272       .  S
In364      O1287   2.263       .  S
In364      O1284   2.270       .  S
C365        O371   1.259       .  A
C365        O373   1.261       .  A
C365        C698   1.424       .  S
O366       C1286   1.255       .  A
O367      In1276   2.271   1_554  S
O367        C374   1.262   1_554  A
C368        O375   1.262       .  A
C368       O1281   1.257   1_554  A
C368        C699   1.434       .  S
O369       C1280   1.256       .  A
C370        O372   1.260       .  A
C370       O1288   1.257   1_554  A
C370        C772   1.438       .  S
O372      In1276   2.266   1_554  S
C374       O1278   1.255       .  A
C374        C710   1.439       .  S
O375      In1276   2.260   1_554  S
O376       C1282   1.257       .  A
C377        C378   1.523       .  S
C377        C383   1.526       .  S
C377        C381   1.527       .  S
C377        C702   1.468       .  S
C378        H385   1.086       .  S
C378        C379   1.365       .  D
C379        C380   1.551       .  S
C379        C685   1.480       .  S
C380        C384   1.544       .  S
C380        C382   1.551       .  S
C380        H386   1.110       .  S
C381       H1299   1.087       .  S
C381        C382   1.366       .  D
C382        C689   1.479       .  S
C383        H388   1.087       .  S
C383        C384   1.365       .  D
C384        C693   1.475       .  S
H387       C1293   1.087       .  S
C389        C390   1.523       .  S
C389        C395   1.526       .  S
C389        C393   1.533       .  S
C389        C708   1.473       .  S
C390        H397   1.086       .  S
C390        C391   1.364       .  D
C391        C392   1.552       .  S
C391        C681   1.485       .  S
C392        C396   1.543       .  S
C392        C394   1.547       .  S
C392        H398   1.111       .  S
C393       H1311   1.084       .  S
C393        C394   1.375       .  D
C394        C723   1.490       .  S
C395       H1312   1.087       .  S
C395        C396   1.363       .  D
C396        C694   1.475       .  S
H399       C1305   1.087       .  S
H400       C1307   1.087       .  S
C401        C402   1.519       .  S
C401        C407   1.526       .  S
C401        C405   1.523       .  S
C401        C673   1.468       .  S
C402        H409   1.081       .  S
C402        C403   1.367       .  D
C403        C404   1.558       .  S
C403        C669   1.491       .  S
C404        C408   1.542       .  S
C404        C406   1.554       .  S
C404        H410   1.111       .  S
C405       H1323   1.083       .  S
C405        C406   1.375       .  D
C406        C690   1.495       .  S
C407        H412   1.087       .  S
C407        C408   1.360       .  D
C408        C678   1.478       .  S
H411       C1317   1.085       .  S
In413       O415   2.231       .  S
In413       O418   2.237       .  S
In413       O420   2.232       .  S
In413       O422   2.245       .  S
In413       O425   2.245   1_554  S
In413      O1328   2.265   1_554  S
In413      O1336   2.262   1_554  S
In413      O1333   2.263   1_554  S
C414        O420   1.258       .  A
C414        O422   1.259       .  A
C414        C665   1.428       .  S
O415       C1335   1.256   1_554  A
O416      In1325   2.271       .  S
O416        C423   1.262       .  A
C417        O424   1.262       .  A
C417       O1330   1.257       .  A
C417        C676   1.435       .  S
O418       C1329   1.258   1_554  A
C419        O421   1.259       .  A
C419       O1337   1.255       .  A
C419        C787   1.437       .  S
O421      In1325   2.269       .  S
C423       O1327   1.254       .  A
C423        C668   1.436       .  S
O424      In1325   2.258       .  S
O425       C1331   1.257       .  A
In426       O428   2.229       .  S
In426       O429   2.238       .  S
In426       O437   2.251       .  S
In426       O434   2.234       .  S
In426       O435   2.235       .  S
In426      O1343   2.269       .  S
In426      O1345   2.264       .  S
In426      O1350   2.269       .  S
C427        O433   1.261   1_556  A
C427       O1347   1.255       .  A
C427        C667   1.436       .  S
O428        C436   1.258       .  A
O429        C436   1.260       .  A
C430        O431   1.260   1_554  A
C430       O1349   1.256   1_554  A
C430        C752   1.437       .  S
O431      In1338   2.265       .  S
C432        O438   1.261       .  A
C432       O1346   1.256   1_554  A
C432        C661   1.431       .  S
O433      In1338   2.263   1_554  S
O434       C1344   1.257       .  A
O435       C1339   1.256       .  A
C436        C659   1.426       .  S
O437       C1342   1.257       .  A
O438      In1338   2.255   1_554  S
C439        C440   1.520       .  S
C439        C445   1.525       .  S
C439        C443   1.529       .  S
C439        C664   1.464       .  S
C440        H447   1.087       .  S
C440        C441   1.362       .  D
C441        C442   1.553       .  S
C441        C656   1.483       .  S
C442        C446   1.542       .  S
C442        C444   1.547       .  S
C442        H448   1.111       .  S
C443       H1361   1.084   1_554  S
C443        C444   1.375       .  D
C444        C715   1.486       .  S
C445        H450   1.087       .  S
C445        C446   1.361       .  D
C446        C677   1.473       .  S
H449       C1355   1.086       .  S
In451       O453   2.264       .  S
In451       O454   2.238       .  S
In451       O462   2.253       .  S
In451       O456   2.268       .  S
In451       O458   2.261       .  S
In451       O459   2.239       .  S
In451       O460   2.243       .  S
In451       O463   2.235       .  S
C452        O458   1.262       .  A
C452        O460   1.257       .  A
C452        C654   1.438       .  S
O453        C461   1.262       .  A
O454        C461   1.258       .  A
C455        O462   1.256       .  A
C455        O456   1.258       .  A
C455        C824   1.441       .  S
C457        O459   1.258       .  A
C457        O463   1.259       .  A
C457        C660   1.426       .  S
C461        C649   1.439       .  S
In464       O466   2.237       .  S
In464       O467   2.267       .  S
In464       O475   2.251       .  S
In464       O469   2.227       .  S
In464       O471   2.227       .  S
In464       O472   2.266       .  S
In464       O473   2.238       .  S
In464       O476   2.240       .  S
C465        O471   1.259       .  A
C465        O473   1.261       .  A
C465        C666   1.427       .  S
O466        C474   1.256       .  A
O467        C474   1.261       .  A
C468        O475   1.260       .  A
C468        O469   1.257       .  A
C468        C648   1.429       .  S
C470        O472   1.261       .  A
C470        O476   1.255       .  A
C470        C653   1.438       .  S
C474        C879   1.437       .  S
C477        C478   1.527       .  S
C477        C483   1.525       .  S
C477        C481   1.529       .  S
C477        C652   1.474       .  S
C478        H485   1.087       .  S
C478        C479   1.362       .  D
C479        C480   1.538       .  S
C479        C641   1.471       .  S
C480        C484   1.552       .  S
C480        C482   1.551       .  S
C480        H486   1.111       .  S
C481        H487   1.084       .  S
C481        C482   1.375       .  D
C482        C637   1.495       .  S
C483        H488   1.086       .  S
C483        C484   1.368       .  D
C484        C655   1.490       .  S
C489        C490   1.519       .  S
C489        C495   1.519       .  S
C489        C493   1.527       .  S
C489        C645   1.463       .  S
C490        H497   1.087       .  S
C490        C491   1.367       .  D
C491        C492   1.549       .  S
C491        C642   1.484       .  S
C492        C496   1.555       .  S
C492        C494   1.548       .  S
C492        H498   1.110       .  S
C493        H499   1.087       .  S
C493        C494   1.365       .  D
C494        C633   1.478       .  S
C495        H500   1.082       .  S
C495        C496   1.365       .  D
C496        C670   1.488       .  S
C501        C502   1.525       .  S
C501        C507   1.521       .  S
C501        C505   1.527       .  S
C501        C628   1.472       .  S
C502        H509   1.086       .  S
C502        C503   1.369       .  D
C503        C504   1.545       .  S
C503        C629   1.488       .  S
C504        C508   1.555       .  S
C504        C506   1.551       .  S
C504        H510   1.110       .  S
C505        H511   1.087       .  S
C505        C506   1.369       .  D
C506        C621   1.482       .  S
C507        H512   1.085       .  S
C507        C508   1.365       .  D
C508        C682   1.488       .  S
C513        C514   1.526       .  S
C513        C519   1.522       .  S
C513        C517   1.528       .  S
C513        C620   1.469       .  S
C514        H521   1.087       .  S
C514        C515   1.361       .  D
C515        C516   1.540       .  S
C515        C630   1.472       .  S
C516        C520   1.551       .  S
C516        C518   1.548       .  S
C516        H522   1.111       .  S
C517        H523   1.084       .  S
C517        C518   1.375       .  D
C518        C634   1.488       .  S
C519        H524   1.085       .  S
C519        C520   1.367       .  D
C520        C686   1.489       .  S
In525       O527   2.245       .  S
In525       O528   2.265       .  S
In525       O536   2.265       .  S
In525       O530   2.234       .  S
In525       O532   2.232       .  S
In525       O533   2.260       .  S
In525       O534   2.234       .  S
In525       O537   2.237       .  S
C526        O532   1.259       .  A
C526        O534   1.259       .  A
C526        C697   1.425       .  S
O527        C535   1.257       .  A
O528        C535   1.259       .  A
C529        O536   1.262       .  A
C529        O530   1.256       .  A
C529        C617   1.436       .  S
C531        O533   1.262       .  A
C531        O537   1.257       .  A
C531        C616   1.436       .  S
C535        C866   1.439       .  S
In538       O540   2.249       .  S
In538       O541   2.263       .  S
In538       O549   2.266       .  S
In538       O543   2.237       .  S
In538       O545   2.250       .  S
In538       O546   2.263       .  S
In538       O547   2.235       .  S
In538       O550   2.231       .  S
C539        O545   1.260       .  A
C539        O547   1.259       .  A
C539        C704   1.432       .  S
O540        C548   1.258       .  A
O541        C548   1.259       .  A
C542        O549   1.262       .  A
C542        O543   1.257       .  A
C542        C625   1.438       .  S
C544        O546   1.263       .  A
C544        O550   1.256       .  A
C544        C615   1.435       .  S
C548        C816   1.440       .  S
In551       O553   2.235       .  S
In551       O554   2.264       .  S
In551       O562   2.265       .  S
In551       O556   2.235       .  S
In551       O558   2.218       .  S
In551       O559   2.264       .  S
In551       O560   2.240       .  S
In551       O563   2.237       .  S
C552        O558   1.259       .  A
C552        O560   1.261       .  A
C552        C738   1.424       .  S
O553        C561   1.257       .  A
O554        C561   1.261       .  A
C555        O562   1.261       .  A
C555        O556   1.256       .  A
C555        C612   1.437       .  S
C557        O559   1.262       .  A
C557        O563   1.255       .  A
C557        C613   1.435       .  S
C561        C876   1.436       .  S
In564       O566   2.258       .  S
In564       O567   2.234       .  S
In564       O575   2.230       .  S
In564       O569   2.261       .  S
In564       O571   2.261       .  S
In564       O572   2.229       .  S
In564       O573   2.231       .  S
In564       O576   2.244       .  S
C565        O571   1.263       .  A
C565        O573   1.257       .  A
C565        C614   1.435       .  S
O566        C574   1.261       .  A
O567        C574   1.257       .  A
C568        O575   1.257       .  A
C568        O569   1.261       .  A
C568        C858   1.435       .  S
C570        O572   1.259       .  A
C570        O576   1.260       .  A
C570        C732   1.428       .  S
C574        C608   1.434       .  S
C577        C578   1.524       .  S
C577        C583   1.518       .  S
C577        C581   1.529       .  S
C577        C605   1.467       .  S
C578        H585   1.087       .  S
C578        C579   1.369       .  D
C579        C580   1.548       .  S
C579        C601   1.488       .  S
C580        C584   1.558       .  S
C580        C582   1.549       .  S
C580        H586   1.110       .  S
C581        H587   1.087       .  S
C581        C582   1.367       .  D
C582        C638   1.481       .  S
C583        H588   1.085       .  S
C583        C584   1.363       .  D
C584        C711   1.485       .  S
C589        C590   1.526       .  S
C589        C595   1.524       .  S
C589        C593   1.526       .  S
C589        C609   1.470       .  S
C590        H597   1.087       .  S
C590        C591   1.361       .  D
C591        C592   1.541       .  S
C591        C602   1.474       .  S
C592        C596   1.557       .  S
C592        C594   1.554       .  S
C592        H598   1.111       .  S
C593        H599   1.083       .  S
C593        C594   1.376       .  D
C594        C622   1.496       .  S
C595        H600   1.086       .  S
C595        C596   1.368       .  D
C596        C720   1.496       .  S
C601        H603   1.086       .  S
C601        C602   1.348       .  D
C602        H604   1.087       .  S
C605        C606   1.205       .  T
C606        C607   1.411       .  S
C607        C608   1.205       .  T
C609        C610   1.207       .  T
C610        C611   1.413       .  S
C611        C612   1.206       .  T
C613        C614   1.206       .  T
C615        C616   1.206       .  T
C617        C618   1.206       .  T
C618        C619   1.412       .  S
C619        C620   1.206       .  T
C621        H623   1.083       .  S
C621        C622   1.349       .  D
C622        H624   1.086       .  S
C625        C626   1.208       .  T
C626        C627   1.415       .  S
C627        C628   1.208       .  T
C629        H631   1.086       .  S
C629        C630   1.346       .  D
C630        H632   1.086       .  S
C633        H635   1.084       .  S
C633        C634   1.345       .  D
C634        H636   1.086       .  S
C637        H639   1.086       .  S
C637        C638   1.348       .  D
C638        H640   1.083       .  S
C641        H643   1.087       .  S
C641        C642   1.346       .  D
C642        H644   1.086       .  S
C645        C646   1.202       .  T
C646        C647   1.406       .  S
C647        C648   1.202       .  T
C649        C650   1.208       .  T
C650        C651   1.416       .  S
C651        C652   1.209       .  T
C653        C654   1.207       .  T
C655        H657   1.086       .  S
C655        C656   1.345       .  D
C656        H658   1.088       .  S
C659        C660   1.200       .  T
C661        C662   1.203       .  T
C662        C663   1.408       .  S
C663        C664   1.203       .  T
C665        C666   1.201       .  T
C667       C1580   1.206       .  T
C668       C1579   1.207       .  T
C669        H671   1.086       .  S
C669        C670   1.348       .  D
C670        H672   1.087       .  S
C673        C674   1.205       .  T
C674        C675   1.411       .  S
C675        C676   1.205       .  T
C677        H679   1.086       .  S
C677       C1590   1.348   1_554  D
C678        H680   1.086       .  S
C678       C1589   1.348       .  D
C681        H683   1.088       .  S
C681        C682   1.347       .  D
C682        H684   1.086       .  S
C685        H687   1.088       .  S
C685        C686   1.346       .  D
C686        H688   1.086       .  S
C689       H1603   1.085   1_554  S
C689       C1602   1.342   1_554  D
C690       H1604   1.086       .  S
C690       C1601   1.348       .  D
H691       C1601   1.082       .  S
H692       C1602   1.086       .  S
C693        H695   1.087       .  S
C693       C1606   1.345   1_554  D
C694        H696   1.087       .  S
C694       C1605   1.349       .  D
C697        C698   1.199       .  T
C699        C700   1.205       .  T
C700        C701   1.411       .  S
C701        C702   1.205       .  T
C703        C704   1.204       .  T
C705        C706   1.209       .  T
C706        C707   1.417       .  S
C707        C708   1.209       .  T
C709        C710   1.208   1_554  T
C711        H713   1.087       .  S
C711        C712   1.346       .  D
C712        H714   1.086       .  S
C715       H1629   1.086       .  S
C715       C1628   1.344   1_554  D
C716       H1630   1.085       .  S
C716       C1627   1.350       .  D
H717       C1627   1.083       .  S
H718       C1628   1.083       .  S
C719        H721   1.088       .  S
C719        C720   1.349       .  D
C720        H722   1.086       .  S
C723        H725   1.086       .  S
C723       C1636   1.345       .  D
C724        H726   1.086       .  S
C724       C1635   1.346   1_554  D
C727       H1641   1.086       .  S
C727       C1640   1.347       .  D
C728        H730   1.087       .  S
C728       C1639   1.346       .  D
H729       C1639   1.086   1_556  S
C731        C732   1.201       .  T
C733        C734   1.208       .  T
C734        C735   1.417       .  S
C735        C736   1.209       .  T
C737        C738   1.199       .  T
C739        C740   1.204       .  T
C740        C741   1.409       .  S
C741        C742   1.204       .  T
C743       C1223   1.437       .  S
C743        C744   1.207       .  T
C745        C746   1.211       .  T
C747        C748   1.205       .  T
C748        C749   1.410       .  S
C749        C750   1.205       .  T
C751        C752   1.207       .  T
C753       C1666   1.209       .  T
C754       C1665   1.208   1_556  T
C755        C756   1.206       .  T
C756        C757   1.412       .  S
C757        C758   1.206       .  T
C759        H761   1.087       .  S
C759       C1672   1.344       .  D
C760        H762   1.087       .  S
C760       C1671   1.346   1_554  D
C763        H765   1.086       .  S
C763       C1676   1.349       .  D
C764        H766   1.084       .  S
C764       C1675   1.346   1_554  D
C767       H1681   1.086       .  S
C767       C1680   1.344   1_554  D
C768       H1682   1.086       .  S
C768       C1679   1.345       .  D
H769       C1679   1.086       .  S
H770       C1680   1.086       .  S
C771        C772   1.208       .  T
C773        C774   1.205       .  T
C774        C775   1.410       .  S
C775        C776   1.205       .  T
C777        C778   1.209       .  T
C779        C780   1.208       .  T
C780        C781   1.416       .  S
C781        C782   1.208       .  T
C783        C784   1.210       .  T
C785        C786   1.205   1_655  T
C787        C788   1.207       .  T
C789        C790   1.208       .  T
C791        H793   1.086       .  S
C791       C1704   1.350   1_554  D
C792        H794   1.083       .  S
C792       C1703   1.342       .  D
C795        C796   1.205       .  T
C796        C797   1.411       .  S
C797        C798   1.205       .  T
C799        H801   1.086       .  S
C799       C1712   1.344       .  D
C800        H802   1.086       .  S
C800       C1711   1.350   1_554  D
C803        C804   1.207       .  T
C804        C805   1.415       .  S
C805        C806   1.208       .  T
C807        H809   1.086       .  S
C807       C1720   1.347       .  D
C808        H810   1.086       .  S
C808       C1719   1.344   1_554  D
C811        H813   1.088       .  S
C811        C812   1.345       .  D
C812        H814   1.086       .  S
C815        C816   1.208       .  T
C817        C818   1.204       .  T
C819        C820   1.204       .  T
C820        C821   1.409       .  S
C821        C822   1.204       .  T
C823        C824   1.209       .  T
C825        C826   1.198       .  T
C827        C828   1.208       .  T
C829        H831   1.087       .  S
C829        C830   1.347       .  D
C830        H832   1.086       .  S
C833        C834   1.206       .  T
C834        C835   1.412       .  S
C835        C836   1.206       .  T
C837        H839   1.086       .  S
C837        C838   1.345       .  D
C838        H840   1.086       .  S
C841        H843   1.086       .  S
C841        C842   1.348       .  D
C842        H844   1.088       .  S
C845        H847   1.086       .  S
C845        C846   1.348       .  D
C846        H848   1.083       .  S
C849        H851   1.086       .  S
C849        C850   1.348       .  D
C850        H852   1.088       .  S
C853        H855   1.086       .  S
C853        C854   1.349       .  D
C854        H856   1.086       .  S
C857        C858   1.206       .  T
C859        C860   1.203       .  T
C861        C862   1.209       .  T
C862        C863   1.417       .  S
C863        C864   1.209       .  T
C865        C866   1.208       .  T
C867        C868   1.202       .  T
C869        C870   1.207       .  T
C870        C871   1.414       .  S
C871        C872   1.207       .  T
C873        C874   1.208       .  T
C875        C876   1.206       .  T
C877        C878   1.200       .  T
C879        C880   1.207       .  T
C881        C882   1.202       .  T
C883        C884   1.204       .  T
C885        H887   1.087       .  S
C885        C886   1.350       .  D
C886        H888   1.086       .  S
C889        H891   1.085       .  S
C889        C890   1.347       .  D
C890        H892   1.086       .  S
C893        C894   1.205       .  T
C894        C895   1.411       .  S
C895        C896   1.205       .  T
C897        H899   1.088       .  S
C897        C898   1.348       .  D
C898        H900   1.086       .  S
C901        H903   1.086       .  S
C901        C902   1.349       .  D
C902        H904   1.084       .  S
C905        C906   1.208       .  T
C906        C907   1.415       .  S
C907        C908   1.208       .  T
C909        H911   1.087       .  S
C909        C910   1.349       .  D
C910        H912   1.086       .  S
C913        C914   1.525       .  S
C913        C919   1.526       .  S
C913        C917   1.536       .  S
C913       C1817   1.474       .  S
C914        H921   1.087       .  S
C914        C915   1.364       .  D
C915        C916   1.551       .  S
C915       C1809   1.486       .  S
C916        C920   1.541       .  S
C916        C918   1.551       .  S
C916        H922   1.111       .  S
C917        H923   1.084       .  S
C917        C918   1.377       .  D
C918       C1813   1.495       .  S
C919        H924   1.087       .  S
C919        C920   1.360       .  D
C920       C1821   1.472       .  S
C925        C926   1.521       .  S
C925        C931   1.527       .  S
C925        C929   1.527       .  S
C925       C1805   1.469       .  S
C926        H933   1.087       .  S
C926        C927   1.363       .  D
C927        C928   1.553       .  S
C927       C1797   1.484       .  S
C928        C932   1.546       .  S
C928        C930   1.549       .  S
C928        H934   1.111       .  S
C929        H935   1.087       .  S
C929        C930   1.366       .  D
C930       C1801   1.479       .  S
C931        H936   1.086       .  S
C931        C932   1.371       .  D
C932       C1822   1.487       .  S
In937       O939   2.244       .  S
In937       O940   2.272       .  S
In937       O948   2.268       .  S
In937       O942   2.240       .  S
In937       O944   2.238       .  S
In937       O945   2.271       .  S
In937       O946   2.245       .  S
In937       O949   2.258       .  S
C938        O944   1.259       .  A
C938        O946   1.259       .  A
C938       C1793   1.431       .  S
O939        C947   1.256       .  A
O940        C947   1.262       .  A
C941        O948   1.263       .  A
C941        O942   1.257       .  A
C941       C1820   1.441       .  S
C943        O945   1.258       .  A
C943        O949   1.257       .  A
C943       C1792   1.444   1_545  S
C947       C1796   1.441       .  S
In950       O952   2.242       .  S
In950       O953   2.265       .  S
In950       O961   2.259       .  S
In950       O955   2.232       .  S
In950       O957   2.224       .  S
In950       O958   2.273       .  S
In950       O959   2.244       .  S
In950       O962   2.245       .  S
C951        O957   1.258       .  A
C951        O959   1.260       .  A
C951       C1790   1.426       .  S
O952        C960   1.257       .  A
O953        C960   1.263       .  A
C954        O961   1.262       .  A
C954        O955   1.257       .  A
C954       C1808   1.436       .  S
C956        O958   1.261       .  A
C956        O962   1.257       .  A
C956       C1787   1.442       .  S
C960       C1795   1.441       .  S
In963       O965   2.232       .  S
In963       O966   2.268       .  S
In963       O974   2.267       .  S
In963       O968   2.239       .  S
In963       O970   2.235       .  S
In963       O971   2.267       .  S
In963       O972   2.243       .  S
In963       O975   2.243       .  S
C964        O970   1.260       .  A
C964        O972   1.260       .  A
C964       C1780   1.431       .  S
O965        C973   1.256       .  A
O966        C973   1.263       .  A
C967        O974   1.261       .  A
C967        O968   1.258       .  A
C967       C1781   1.439       .  S
C969        O971   1.260       .  A
C969        O975   1.257       .  A
C969       C1777   1.440   1_545  S
C973       C1786   1.437       .  S
In976       O978   2.244       .  S
In976       O979   2.229       .  S
In976       O987   2.249       .  S
In976       O981   2.273       .  S
In976       O983   2.270       .  S
In976       O984   2.237       .  S
In976       O985   2.236       .  S
In976       O988   2.271       .  S
C977        O983   1.263       .  A
C977        O985   1.256       .  A
C977       C1785   1.438       .  S
O978        C986   1.259       .  A
O979        C986   1.258       .  A
C980        O987   1.257       .  A
C980        O981   1.259       .  A
C980       C1769   1.443       .  S
C982        O984   1.257       .  A
C982        O988   1.263       .  A
C982       C1773   1.441       .  S
C986       C1771   1.426       .  S
C989        C990   1.532       .  S
C989        C995   1.522       .  S
C989        C993   1.539       .  S
C989       C1784   1.473       .  S
C990        H997   1.081       .  S
C990        C991   1.365       .  D
C991        C992   1.559       .  S
C991       C1761   1.499       .  S
C992        C996   1.547       .  S
C992        C994   1.540       .  S
C992        H998   1.110       .  S
C993        H999   1.086       .  S
C993        C994   1.367       .  D
C994       C1814   1.489       .  S
C995       H1000   1.086       .  S
C995        C996   1.367       .  D
C996       C1766   1.490       .  S
C1001      C1002   1.523       .  S
C1001      C1007   1.526       .  S
C1001      C1005   1.532       .  S
C1001      C1776   1.476       .  S
C1002      H1009   1.087       .  S
C1002      C1003   1.368       .  D
C1003      C1004   1.555       .  S
C1003      C1753   1.494       .  S
C1004      C1008   1.542       .  S
C1004      C1006   1.551       .  S
C1004      H1010   1.111       .  S
C1005      H1011   1.083       .  S
C1005      C1006   1.377       .  D
C1006      C1757   1.498       .  S
C1007      H1012   1.087       .  S
C1007      C1008   1.362       .  D
C1008      C1765   1.476       .  S
C1013      C1014   1.523       .  S
C1013      C1019   1.527       .  S
C1013      C1017   1.529       .  S
C1013      C1745   1.473       .  S
C1014      H1021   1.085       .  S
C1014      C1015   1.366       .  D
C1015      C1016   1.555       .  S
C1015      C1741   1.490       .  S
C1016      C1020   1.544       .  S
C1016      C1018   1.549       .  S
C1016      H1022   1.111       .  S
C1017      H1023   1.087       .  S
C1017      C1018   1.367       .  D
C1018      C1758   1.482       .  S
C1019      H1024   1.087       .  S
C1019      C1020   1.369       .  D
C1020      C1749   1.483       .  S
In1025     O1027   2.243       .  S
In1025     O1028   2.232       .  S
In1025     O1036   2.251       .  S
In1025     O1030   2.283       .  S
In1025     O1032   2.278       .  S
In1025     O1033   2.237       .  S
In1025     O1034   2.249       .  S
In1025     O1037   2.267       .  S
C1026      O1032   1.264       .  A
C1026      O1034   1.256       .  A
C1026      C1740   1.447       .  S
O1027      C1035   1.260       .  A
O1028      C1035   1.258       .  A
C1029      O1036   1.257       .  A
C1029      O1030   1.261       .  A
C1029      C1735   1.446       .  S
C1031      O1033   1.257       .  A
C1031      O1037   1.263       .  A
C1031      C1748   1.439       .  S
C1035      C1737   1.428       .  S
In1038     O1040   2.245       .  S
In1038     O1041   2.278       .  S
In1038     O1049   2.262       .  S
In1038     O1043   2.236       .  S
In1038     O1045   2.236       .  S
In1038     O1046   2.278       .  S
In1038     O1047   2.250       .  S
In1038     O1050   2.254       .  S
C1039      O1045   1.259       .  A
C1039      O1047   1.260       .  A
C1039      C1729   1.432       .  S
O1040      C1048   1.257       .  A
O1041      C1048   1.265       .  A
C1042      O1049   1.262       .  A
C1042      O1043   1.258       .  A
C1042      C1734   1.437       .  S
C1044      O1046   1.261       .  A
C1044      O1050   1.257       .  A
C1044      C1727   1.446       .  S
C1048      C1739   1.447       .  S
C1051      C1052   1.523       .  S
C1051      C1057   1.525       .  S
C1051      C1055   1.531       .  S
C1051      C1731   1.471       .  S
C1052      H1059   1.087       .  S
C1052      C1053   1.363       .  D
C1053      C1054   1.554       .  S
C1053      C1723   1.488       .  S
C1054      C1058   1.542       .  S
C1054      C1056   1.551       .  S
C1054      H1060   1.111       .  S
C1055      H1061   1.083       .  S
C1055      C1056   1.376       .  D
C1056      C1802   1.496       .  S
C1057      H1062   1.087       .  S
C1057      C1058   1.363       .  D
C1058      C1750   1.471       .  S
C1063      C1064   1.529       .  S
C1063      C1069   1.521       .  S
C1063      C1067   1.528       .  S
C1063      C1718   1.469       .  S
C1064      H1071   1.086       .  S
C1064      C1065   1.370       .  D
C1065      C1066   1.541       .  S
C1065      C1719   1.486       .  S
C1066      C1070   1.555       .  S
C1066      C1068   1.548       .  S
C1066      H1072   1.111       .  S
C1067      C1068   1.366       .  D
C1068      C1711   1.477       .  S
C1069      H1074   1.087       .  S
C1069      C1070   1.364       .  D
C1070      C1810   1.488       .  S
C1075      C1076   1.525       .  S
C1075      C1081   1.522       .  S
C1075      C1079   1.535       .  S
C1075      C1707   1.476       .  S
C1076      H1083   1.086       .  S
C1076      C1077   1.367       .  D
C1077      C1078   1.541       .  S
C1077      C1720   1.485       .  S
C1078      C1082   1.551       .  S
C1078      C1080   1.545       .  S
C1078      H1084   1.111       .  S
C1079      C1080   1.379       .  D
C1080      C1703   1.495       .  S
C1081      H1086   1.086       .  S
C1081      C1082   1.365       .  D
C1082      C1798   1.486       .  S
In1087     O1089   2.245       .  S
In1087     O1092   2.233       .  S
In1087     O1094   2.237       .  S
In1087     O1096   2.249       .  S
In1087     O1099   2.238       .  S
C1088      O1094   1.258       .  A
C1088      O1096   1.259       .  A
C1088      C1794   1.431       .  S
O1090      C1097   1.260       .  A
C1091      O1098   1.262       .  A
C1091      C1715   1.435       .  S
C1093      O1095   1.263   1_554  A
C1093      C1702   1.432       .  S
C1097      C1700   1.437   1_545  S
In1100     O1102   2.239       .  S
In1100     O1105   2.231       .  S
In1100     O1107   2.223       .  S
In1100     O1109   2.241       .  S
In1100     O1112   2.234       .  S
C1101      O1107   1.259       .  A
C1101      O1109   1.260       .  A
C1101      C1789   1.425       .  S
O1103      C1110   1.257       .  A
C1104      O1111   1.263       .  A
C1104      C1710   1.443       .  S
C1106      O1112   1.255       .  A
C1106      C1701   1.433   1_556  S
C1110      C1697   1.438       .  S
In1113     O1116   2.234       .  S
In1113     O1124   2.245       .  S
In1113     O1121   2.228       .  S
In1113     O1122   2.239       .  S
In1113     O1125   2.241       .  S
C1114      O1120   1.263   1_554  A
C1114      C1695   1.441   1_554  S
O1115      C1123   1.262       .  A
C1117      O1118   1.259       .  A
C1117      C1689   1.440       .  S
C1119      O1121   1.259       .  A
C1119      O1125   1.259       .  A
C1119      C1772   1.426       .  S
C1123      C1694   1.436       .  S
In1126     O1128   2.250       .  S
In1126     O1131   2.239       .  S
In1126     O1133   2.237       .  S
In1126     O1135   2.246       .  S
In1126     O1138   2.249       .  S
C1127      O1133   1.259       .  A
C1127      O1135   1.260       .  A
C1127      C1779   1.431       .  S
O1129      C1136   1.263       .  A
C1130      O1137   1.261       .  A
C1130      C1685   1.437       .  S
C1132      O1138   1.256       .  A
C1132      C1696   1.441       .  S
C1136      C1683   1.441   1_545  S
C1139      C1140   1.536       .  S
C1139      C1145   1.532       .  S
C1139      C1143   1.518       .  S
C1139      C1688   1.470       .  S
C1140      H1147   1.086       .  S
C1140      C1141   1.367       .  D
C1141      C1142   1.534       .  S
C1141      C1679   1.490       .  S
C1142      C1146   1.561       .  S
C1142      C1144   1.554       .  S
C1142      H1148   1.111       .  S
C1143      C1144   1.363       .  D
C1144      C1712   1.479       .  S
C1145      H1150   1.068       .  S
C1145      C1146   1.369       .  D
C1146      C1762   1.507       .  S
C1151      C1152   1.524       .  S
C1151      C1157   1.521       .  S
C1151      C1155   1.531       .  S
C1151      C1691   1.469       .  S
C1152      H1159   1.087       .  S
C1152      C1153   1.361       .  D
C1153      C1154   1.542       .  S
C1153      C1680   1.469       .  S
C1154      C1158   1.554       .  S
C1154      C1156   1.552       .  S
C1154      H1160   1.111       .  S
C1155      C1156   1.378       .  D
C1156      C1675   1.498       .  S
C1157      H1162   1.087       .  S
C1157      C1158   1.363       .  D
C1158      C1754   1.486       .  S
C1163      C1164   1.527       .  S
C1163      C1169   1.522       .  S
C1163      C1167   1.527       .  S
C1163      C1670   1.474       .  S
C1164      H1171   1.087       .  S
C1164      C1165   1.371       .  D
C1165      C1166   1.547       .  S
C1165      C1672   1.489       .  S
C1166      C1170   1.554       .  S
C1166      C1168   1.552       .  S
C1166      H1172   1.110       .  S
C1167      C1168   1.368       .  D
C1168      C1676   1.484       .  S
C1169      H1174   1.086       .  S
C1169      C1170   1.364       .  D
C1170      C1742   1.485       .  S
In1175     O1178   2.232       .  S
In1175     O1186   2.243   1_556  S
In1175     O1183   2.228       .  S
In1175     O1184   2.238       .  S
In1175     O1187   2.241       .  S
C1176      O1182   1.264       .  A
C1176      C1666   1.440       .  S
O1177      C1185   1.263       .  A
C1179      O1180   1.260       .  A
C1179      C1663   1.443       .  S
C1181      O1183   1.260       .  A
C1181      O1187   1.260       .  A
C1181      C1738   1.428       .  S
C1185      C1667   1.440       .  S
In1188     O1190   2.250       .  S
In1188     O1193   2.224       .  S
In1188     O1195   2.230       .  S
In1188     O1197   2.252       .  S
In1188     O1200   2.234       .  S
C1189      O1195   1.257       .  A
C1189      O1197   1.260       .  A
C1189      C1730   1.431       .  S
O1191      C1198   1.261       .  A
C1192      O1199   1.261       .  A
C1192      C1659   1.439       .  S
C1194      O1196   1.263   1_554  A
C1194      C1665   1.438       .  S
C1198      C1657   1.439       .  S
C1201      C1202   1.528       .  S
C1201      C1207   1.524       .  S
C1201      C1205   1.527       .  S
C1201      C1662   1.473       .  S
C1202      H1209   1.087       .  S
C1202      C1203   1.369       .  D
C1203      C1204   1.548       .  S
C1203      C1671   1.490       .  S
C1204      C1208   1.557       .  S
C1204      C1206   1.553       .  S
C1204      H1210   1.110       .  S
C1205      C1206   1.367       .  D
C1206      C1704   1.484       .  S
C1207      H1212   1.086       .  S
C1207      C1208   1.365       .  D
C1208      C1724   1.490       .  S
In1213     O1215   2.234       .  S
In1213     O1218   2.226       .  S
In1213     O1220   2.223       .  S
In1213     O1222   2.239       .  S
In1213     O1225   2.236   1_556  S
C1214      O1220   1.259       .  A
C1214      O1222   1.261       .  A
C1214      C1649   1.426       .  S
O1216      C1223   1.264       .  A
C1217      O1224   1.262       .  A
C1217      C1651   1.433       .  S
C1219      O1221   1.261       .  A
C1219      C1698   1.438       .  S
In1226     O1228   2.242       .  S
In1226     O1229   2.225       .  S
In1226     O1237   2.245       .  S
In1226     O1234   2.239       .  S
In1226     O1235   2.240       .  S
C1227      O1233   1.264   1_554  A
C1227      C1656   1.436       .  S
O1228      C1236   1.260       .  A
O1229      C1236   1.259       .  A
C1230      O1231   1.259       .  A
C1230      C1690   1.439       .  S
C1232      O1238   1.262       .  A
C1232      C1645   1.432       .  S
C1236      C1643   1.426       .  S
C1239      C1240   1.523       .  S
C1239      C1245   1.521       .  S
C1239      C1243   1.528       .  S
C1239      C1654   1.466       .  S
C1240      H1247   1.084       .  S
C1240      C1241   1.366       .  D
C1241      C1242   1.556       .  S
C1241      C1631   1.490       .  S
C1242      C1246   1.550       .  S
C1242      C1244   1.548       .  S
C1242      H1248   1.110       .  S
C1243      C1244   1.364       .  D
C1244      C1636   1.480       .  S
C1245      H1250   1.087       .  S
C1245      C1246   1.368       .  D
C1246      C1640   1.489       .  S
C1251      C1252   1.522       .  S
C1251      C1257   1.528       .  S
C1251      C1255   1.526       .  S
C1251      C1648   1.465       .  S
C1252      H1259   1.086       .  S
C1252      C1253   1.363       .  D
C1253      C1254   1.550       .  S
C1253      C1624   1.482       .  S
C1254      C1258   1.545       .  S
C1254      C1256   1.547       .  S
C1254      H1260   1.111       .  S
C1255      C1256   1.364       .  D
C1256      C1628   1.472       .  S
C1257      H1262   1.086   1_556  S
C1257      C1258   1.370       .  D
C1258      C1639   1.484   1_556  S
In1263     O1265   2.237       .  S
In1263     O1266   2.235       .  S
In1263     O1274   2.256       .  S
In1263     O1271   2.238       .  S
In1263     O1272   2.238       .  S
C1264      O1272   1.256       .  A
C1264      C1621   1.441       .  S
O1265      C1273   1.259       .  A
O1266      C1273   1.259       .  A
C1267      O1268   1.257       .  A
C1267      C1658   1.440       .  S
C1269      O1275   1.262       .  A
C1269      C1617   1.438       .  S
C1273      C1615   1.427       .  S
In1276     O1278   2.238       .  S
In1276     O1281   2.229       .  S
In1276     O1283   2.231       .  S
In1276     O1285   2.236       .  S
In1276     O1288   2.242       .  S
C1277      O1283   1.259       .  A
C1277      O1285   1.260       .  A
C1277      C1610   1.427       .  S
O1279      C1286   1.263       .  A
C1280      O1287   1.262       .  A
C1280      C1611   1.435       .  S
C1282      O1284   1.259       .  A
C1282      C1684   1.442       .  S
C1286      C1622   1.441       .  S
C1289      C1290   1.519       .  S
C1289      C1295   1.523       .  S
C1289      C1293   1.526       .  S
C1289      C1614   1.469       .  S
C1290      H1297   1.082       .  S
C1290      C1291   1.364       .  D
C1291      C1292   1.560       .  S
C1291      C1597   1.492       .  S
C1292      C1296   1.551       .  S
C1292      C1294   1.548       .  S
C1292      H1298   1.110       .  S
C1293      C1294   1.366       .  D
C1294      C1601   1.479       .  S
C1295      H1300   1.087       .  S
C1295      C1296   1.369       .  D
C1296      C1605   1.487       .  S
C1301      C1302   1.526       .  S
C1301      C1307   1.525       .  S
C1301      C1305   1.527       .  S
C1301      C1620   1.472       .  S
C1302      H1309   1.085       .  S
C1302      C1303   1.368       .  D
C1303      C1304   1.551       .  S
C1303      C1593   1.489       .  S
C1304      C1308   1.547       .  S
C1304      C1306   1.548       .  S
C1304      H1310   1.111       .  S
C1305      C1306   1.365       .  D
C1306      C1635   1.478       .  S
C1307      C1308   1.369       .  D
C1308      C1606   1.485       .  S
C1313      C1314   1.523       .  S
C1313      C1319   1.525       .  S
C1313      C1317   1.531       .  S
C1313      C1585   1.473       .  S
C1314      H1321   1.083       .  S
C1314      C1315   1.365       .  D
C1315      C1316   1.553       .  S
C1315      C1581   1.491       .  S
C1316      C1320   1.545       .  S
C1316      C1318   1.545       .  S
C1316      H1322   1.111       .  S
C1317      C1318   1.374       .  D
C1318      C1602   1.488       .  S
C1319      H1324   1.087       .  S
C1319      C1320   1.367       .  D
C1320      C1590   1.486       .  S
In1325     O1327   2.234       .  S
In1325     O1330   2.233       .  S
In1325     O1332   2.224       .  S
In1325     O1334   2.246       .  S
In1325     O1337   2.240       .  S
C1326      O1332   1.258       .  A
C1326      O1334   1.261       .  A
C1326      C1577   1.426       .  S
O1328      C1335   1.262       .  A
C1329      O1336   1.262       .  A
C1329      C1588   1.438       .  S
C1331      O1333   1.258       .  A
C1331      C1699   1.437       .  S
C1335      C1580   1.436       .  S
In1338     O1340   2.246       .  S
In1338     O1341   2.226       .  S
In1338     O1349   2.242       .  S
In1338     O1346   2.229       .  S
In1338     O1347   2.242       .  S
C1339      O1345   1.263       .  A
C1339      C1579   1.437       .  S
O1340      C1348   1.261       .  A
O1341      C1348   1.258       .  A
C1342      O1343   1.260       .  A
C1342      C1664   1.443       .  S
C1344      O1350   1.263       .  A
C1344      C1573   1.439       .  S
C1348      C1571   1.428       .  S
C1351      C1352   1.532       .  S
C1351      C1357   1.525       .  S
C1351      C1355   1.539       .  S
C1351      C1576   1.472       .  S
C1352      H1359   1.080       .  S
C1352      C1353   1.366       .  D
C1353      C1354   1.557       .  S
C1353      C1568   1.497       .  S
C1354      C1358   1.545       .  S
C1354      C1356   1.539       .  S
C1354      H1360   1.110       .  S
C1355      C1356   1.367       .  D
C1356      C1627   1.487       .  S
C1357      H1362   1.086       .  S
C1357      C1358   1.367       .  D
C1358      C1589   1.492       .  S
In1363     O1365   2.270       .  S
In1363     O1366   2.246       .  S
In1363     O1374   2.247       .  S
In1363     O1368   2.275       .  S
In1363     O1370   2.279       .  S
In1363     O1371   2.238       .  S
In1363     O1372   2.247       .  S
In1363     O1375   2.243       .  S
C1364      O1370   1.263       .  A
C1364      O1372   1.256       .  A
C1364      C1566   1.444       .  S
O1365      C1373   1.263       .  A
O1366      C1373   1.258       .  A
C1367      O1374   1.258       .  A
C1367      O1368   1.262       .  A
C1367      C1736   1.445       .  S
C1369      O1371   1.260       .  A
C1369      O1375   1.259       .  A
C1369      C1572   1.429       .  S
C1373      C1561   1.444       .  S
In1376     O1378   2.235       .  S
In1376     O1379   2.272       .  S
In1376     O1387   2.255       .  S
In1376     O1381   2.225       .  S
In1376     O1383   2.228       .  S
In1376     O1384   2.274       .  S
In1376     O1385   2.238       .  S
In1376     O1388   2.243       .  S
C1377      O1383   1.260       .  A
C1377      O1385   1.259       .  A
C1377      C1578   1.426       .  S
O1378      C1386   1.257       .  A
O1379      C1386   1.264       .  A
C1380      O1387   1.263       .  A
C1380      O1381   1.259       .  A
C1380      C1560   1.433       .  S
C1382      O1384   1.265       .  A
C1382      O1388   1.257       .  A
C1382      C1565   1.444       .  S
C1386      C1791   1.442       .  S
C1389      C1390   1.532       .  S
C1389      C1395   1.538       .  S
C1389      C1393   1.530       .  S
C1389      C1564   1.475       .  S
C1390      H1397   1.087       .  S
C1390      C1391   1.359       .  D
C1391      C1392   1.531       .  S
C1391      C1553   1.477       .  S
C1392      C1396   1.556       .  S
C1392      C1394   1.545       .  S
C1392      H1398   1.111       .  S
C1393      H1399   1.083       .  S
C1393      C1394   1.373       .  D
C1394      C1549   1.492       .  S
C1395      H1400   1.081       .  S
C1395      C1396   1.372       .  D
C1396      C1567   1.501       .  S
C1401      C1402   1.523       .  S
C1401      C1407   1.516       .  S
C1401      C1405   1.524       .  S
C1401      C1557   1.467       .  S
C1402      H1409   1.083       .  S
C1402      C1403   1.370       .  D
C1403      C1404   1.549       .  S
C1403      C1554   1.495       .  S
C1404      C1408   1.559       .  S
C1404      C1406   1.553       .  S
C1404      H1410   1.111       .  S
C1405      H1411   1.084       .  S
C1405      C1406   1.376       .  D
C1406      C1545   1.498       .  S
C1407      H1412   1.083       .  S
C1407      C1408   1.362       .  D
C1408      C1582   1.489       .  S
C1413      C1414   1.527       .  S
C1413      C1419   1.520       .  S
C1413      C1417   1.525       .  S
C1413      C1540   1.469       .  S
C1414      H1421   1.086       .  S
C1414      C1415   1.371       .  D
C1415      C1416   1.546       .  S
C1415      C1541   1.489       .  S
C1416      C1420   1.554       .  S
C1416      C1418   1.550       .  S
C1416      H1422   1.111       .  S
C1417      H1423   1.087       .  S
C1417      C1418   1.366       .  D
C1418      C1533   1.478       .  S
C1419      H1424   1.086       .  S
C1419      C1420   1.363       .  D
C1420      C1594   1.483       .  S
C1425      C1426   1.527       .  S
C1425      C1431   1.523       .  S
C1425      C1429   1.519       .  S
C1425      C1532   1.467       .  S
C1426      H1433   1.087       .  S
C1426      C1427   1.362       .  D
C1427      C1428   1.541       .  S
C1427      C1542   1.473       .  S
C1428      C1432   1.560       .  S
C1428      C1430   1.559       .  S
C1428      H1434   1.110       .  S
C1429      H1435   1.087       .  S
C1429      C1430   1.366       .  D
C1430      C1546   1.485       .  S
C1431      H1436   1.081       .  S
C1431      C1432   1.369       .  D
C1432      C1598   1.494       .  S
In1437     O1439   2.250       .  S
In1437     O1440   2.272       .  S
In1437     O1448   2.256       .  S
In1437     O1442   2.226       .  S
In1437     O1444   2.231       .  S
In1437     O1445   2.277       .  S
In1437     O1446   2.244       .  S
In1437     O1449   2.243       .  S
C1438      O1444   1.257       .  A
C1438      O1446   1.259       .  A
C1438      C1609   1.427       .  S
O1439      C1447   1.256       .  A
O1440      C1447   1.260       .  A
C1441      O1448   1.263       .  A
C1441      O1442   1.257       .  A
C1441      C1529   1.433       .  S
C1443      O1445   1.264       .  A
C1443      O1449   1.256       .  A
C1443      C1528   1.445       .  S
C1447      C1778   1.441       .  S
In1450     O1452   2.252       .  S
In1450     O1453   2.275       .  S
In1450     O1461   2.259       .  S
In1450     O1455   2.235       .  S
In1450     O1457   2.226       .  S
In1450     O1458   2.281       .  S
In1450     O1459   2.239       .  S
In1450     O1462   2.250       .  S
C1451      O1457   1.260       .  A
C1451      O1459   1.261       .  A
C1451      C1616   1.427       .  S
O1452      C1460   1.257       .  A
O1453      C1460   1.262       .  A
C1454      O1461   1.261       .  A
C1454      O1455   1.257       .  A
C1454      C1537   1.435       .  S
C1456      O1458   1.264       .  A
C1456      O1462   1.255       .  A
C1456      C1527   1.446       .  S
C1460      C1728   1.446       .  S
In1463     O1465   2.257       .  S
In1463     O1466   2.269       .  S
In1463     O1474   2.264       .  S
In1463     O1468   2.240       .  S
In1463     O1470   2.233       .  S
In1463     O1471   2.267       .  S
In1463     O1472   2.241       .  S
In1463     O1475   2.241       .  S
C1464      O1470   1.258       .  A
C1464      O1472   1.258       .  A
C1464      C1650   1.426       .  S
O1465      C1473   1.256       .  A
O1466      C1473   1.257       .  A
C1467      O1474   1.263       .  A
C1467      O1468   1.257       .  A
C1467      C1524   1.439       .  S
C1469      O1471   1.263       .  A
C1469      O1475   1.257       .  A
C1469      C1525   1.440       .  S
C1473      C1788   1.442       .  S
In1476     O1478   2.263       .  S
In1476     O1479   2.230       .  S
In1476     O1487   2.241       .  S
In1476     O1481   2.277       .  S
In1476     O1483   2.272       .  S
In1476     O1484   2.226       .  S
In1476     O1485   2.237       .  S
In1476     O1488   2.240       .  S
C1477      O1483   1.264       .  A
C1477      O1485   1.256       .  A
C1477      C1526   1.440       .  S
O1478      C1486   1.263       .  A
O1479      C1486   1.257       .  A
C1480      O1487   1.256       .  A
C1480      O1481   1.262       .  A
C1480      C1770   1.442       .  S
C1482      O1484   1.259       .  A
C1482      O1488   1.260       .  A
C1482      C1644   1.426       .  S
C1486      C1520   1.436       .  S
C1489      C1490   1.527       .  S
C1489      C1495   1.519       .  S
C1489      C1493   1.527       .  S
C1489      C1517   1.470       .  S
C1490      H1497   1.086       .  S
C1490      C1491   1.371       .  D
C1491      C1492   1.543       .  S
C1491      C1513   1.488       .  S
C1492      C1496   1.553       .  S
C1492      C1494   1.550       .  S
C1492      H1498   1.110       .  S
C1493      H1499   1.087       .  S
C1493      C1494   1.366       .  D
C1494      C1550   1.480       .  S
C1495      H1500   1.085       .  S
C1495      C1496   1.365       .  D
C1496      C1623   1.488       .  S
C1501      C1502   1.527       .  S
C1501      C1507   1.524       .  S
C1501      C1505   1.524       .  S
C1501      C1521   1.472       .  S
C1502      H1509   1.087       .  S
C1502      C1503   1.361       .  D
C1503      C1504   1.540       .  S
C1503      C1514   1.472       .  S
C1504      C1508   1.556       .  S
C1504      C1506   1.557       .  S
C1504      H1510   1.111       .  S
C1505      H1511   1.083       .  S
C1505      C1506   1.375       .  D
C1506      C1534   1.499       .  S
C1507      H1512   1.084       .  S
C1507      C1508   1.367       .  D
C1508      C1632   1.490       .  S
C1513      H1515   1.086       .  S
C1513      C1514   1.345       .  D
C1514      H1516   1.086       .  S
C1517      C1518   1.206       .  T
C1518      C1519   1.413       .  S
C1519      C1520   1.206       .  T
C1521      C1522   1.208       .  T
C1522      C1523   1.415       .  S
C1523      C1524   1.208       .  T
C1525      C1526   1.209       .  T
C1527      C1528   1.212       .  T
C1529      C1530   1.205       .  T
C1530      C1531   1.410       .  S
C1531      C1532   1.205       .  T
C1533      H1535   1.082       .  S
C1533      C1534   1.350       .  D
C1534      H1536   1.086       .  S
C1537      C1538   1.205       .  T
C1538      C1539   1.412       .  S
C1539      C1540   1.206       .  T
C1541      H1543   1.086       .  S
C1541      C1542   1.344       .  D
C1542      H1544   1.086       .  S
C1545      H1547   1.085       .  S
C1545      C1546   1.346       .  D
C1546      H1548   1.084       .  S
C1549      H1551   1.086       .  S
C1549      C1550   1.346       .  D
C1550      H1552   1.083       .  S
C1553      H1555   1.081       .  S
C1553      C1554   1.350       .  D
C1554      H1556   1.086       .  S
C1557      C1558   1.205       .  T
C1558      C1559   1.410       .  S
C1559      C1560   1.204       .  T
C1561      C1562   1.211       .  T
C1562      C1563   1.420       .  S
C1563      C1564   1.210       .  T
C1565      C1566   1.211       .  T
C1567      H1569   1.087       .  S
C1567      C1568   1.364       .  D
C1568      H1570   1.087       .  S
C1571      C1572   1.202       .  T
C1573      C1574   1.208       .  T
C1574      C1575   1.416       .  S
C1575      C1576   1.208       .  T
C1577      C1578   1.200       .  T
C1581      H1583   1.086       .  S
C1581      C1582   1.349       .  D
C1582      H1584   1.087       .  S
C1585      C1586   1.208       .  T
C1586      C1587   1.415       .  S
C1587      C1588   1.208       .  T
C1589      H1591   1.086       .  S
C1590      H1592   1.086       .  S
C1593      H1595   1.086       .  S
C1593      C1594   1.346       .  D
C1594      H1596   1.087       .  S
C1597      H1599   1.087       .  S
C1597      C1598   1.350       .  D
C1598      H1600   1.086       .  S
C1605      H1607   1.086       .  S
C1606      H1608   1.086       .  S
C1609      C1610   1.201       .  T
C1611      C1612   1.206       .  T
C1612      C1613   1.412       .  S
C1613      C1614   1.206       .  T
C1615      C1616   1.201       .  T
C1617      C1618   1.208       .  T
C1618      C1619   1.415       .  S
C1619      C1620   1.208       .  T
C1621      C1622   1.209       .  T
C1623      H1625   1.086       .  S
C1623      C1624   1.347       .  D
C1624      H1626   1.088       .  S
C1631      H1633   1.086       .  S
C1631      C1632   1.348       .  D
C1632      H1634   1.086       .  S
C1635      H1637   1.084       .  S
C1636      H1638   1.084       .  S
C1640      H1642   1.086       .  S
C1643      C1644   1.200       .  T
C1645      C1646   1.204       .  T
C1646      C1647   1.409       .  S
C1647      C1648   1.204       .  T
C1649      C1650   1.200       .  T
C1651      C1652   1.204       .  T
C1652      C1653   1.410       .  S
C1653      C1654   1.204       .  T
C1655      C1656   1.206       .  T
C1657      C1658   1.208   1_655  T
C1659      C1660   1.208       .  T
C1660      C1661   1.416       .  S
C1661      C1662   1.209       .  T
C1663      C1664   1.210       .  T
C1667      C1668   1.209       .  T
C1668      C1669   1.417       .  S
C1669      C1670   1.209       .  T
C1671      H1673   1.086       .  S
C1672      H1674   1.086       .  S
C1675      H1677   1.086       .  S
C1676      H1678   1.082       .  S
C1683      C1684   1.210       .  T
C1685      C1686   1.207       .  T
C1686      C1687   1.413       .  S
C1687      C1688   1.207       .  T
C1689      C1690   1.208       .  T
C1691      C1692   1.207       .  T
C1692      C1693   1.413       .  S
C1693      C1694   1.206       .  T
C1695      C1696   1.209       .  T
C1697      C1698   1.207   1_655  T
C1699      C1700   1.207       .  T
C1701      C1702   1.204       .  T
C1703      H1705   1.086       .  S
C1704      H1706   1.082       .  S
C1707      C1708   1.211       .  T
C1708      C1709   1.420       .  S
C1709      C1710   1.211       .  T
C1711      H1713   1.081       .  S
C1712      H1714   1.082       .  S
C1715      C1716   1.205       .  T
C1716      C1717   1.412       .  S
C1717      C1718   1.206       .  T
C1719      H1721   1.086       .  S
C1720      H1722   1.086       .  S
C1723      H1725   1.087       .  S
C1723      C1724   1.347       .  D
C1724      H1726   1.086       .  S
C1727      C1728   1.212   1_655  T
C1729      C1730   1.203       .  T
C1731      C1732   1.207       .  T
C1732      C1733   1.414       .  S
C1733      C1734   1.207       .  T
C1735      C1736   1.212       .  T
C1737      C1738   1.201       .  T
C1739      C1740   1.213       .  T
C1741      H1743   1.086       .  S
C1741      C1742   1.347       .  D
C1742      H1744   1.087       .  S
C1745      C1746   1.208       .  T
C1746      C1747   1.416       .  S
C1747      C1748   1.208       .  T
C1749      H1751   1.086       .  S
C1749      C1750   1.345       .  D
C1750      H1752   1.087       .  S
C1753      H1755   1.086       .  S
C1753      C1754   1.348       .  D
C1754      H1756   1.088       .  S
C1757      H1759   1.086       .  S
C1757      C1758   1.349       .  D
C1758      H1760   1.082       .  S
C1761      H1763   1.087       .  S
C1761      C1762   1.368       .  D
C1762      H1764   1.087       .  S
C1765      H1767   1.087       .  S
C1765      C1766   1.347       .  D
C1766      H1768   1.086       .  S
C1769      C1770   1.210       .  T
C1771      C1772   1.200       .  T
C1773      C1774   1.210       .  T
C1774      C1775   1.419       .  S
C1775      C1776   1.210       .  T
C1777      C1778   1.209       .  T
C1779      C1780   1.203       .  T
C1781      C1782   1.208       .  T
C1782      C1783   1.416       .  S
C1783      C1784   1.208       .  T
C1785      C1786   1.207       .  T
C1787      C1788   1.210   1_655  T
C1789      C1790   1.200       .  T
C1791      C1792   1.210       .  T
C1793      C1794   1.203       .  T
C1795      C1796   1.209       .  T
C1797      H1799   1.088       .  S
C1797      C1798   1.345       .  D
C1798      H1800   1.087       .  S
C1801      H1803   1.082       .  S
C1801      C1802   1.347       .  D
C1802      H1804   1.086       .  S
C1805      C1806   1.206       .  T
C1806      C1807   1.413       .  S
C1807      C1808   1.206       .  T
C1809      H1811   1.088       .  S
C1809      C1810   1.346       .  D
C1810      H1812   1.086       .  S
C1813      H1815   1.085       .  S
C1813      C1814   1.350       .  D
C1814      H1816   1.084       .  S
C1817      C1818   1.209       .  T
C1818      C1819   1.418       .  S
C1819      C1820   1.209       .  T
C1821      H1823   1.086       .  S
C1821      C1822   1.346       .  D
C1822      H1824   1.086       .  S
