geometry optimzed in LAMMPS
_audit_creation_date              2020-11-30 
_audit_creation_method            'lammps2cif' 
_symmetry_space_group_name_H-M    'P1' 
_symmetry_Int_Tables_number       1 
_symmetry_cell_setting            triclinic 
loop_ 
_symmetry_equiv_pos_as_xyz 
  x,y,z 
_cell_length_a                    45.53495131 
_cell_length_b                    39.47332592555311 
_cell_length_c                    30.450655891667424 
_cell_angle_alpha                 82.05208402969333 
_cell_angle_beta                  82.11546907053456 
_cell_angle_gamma                 89.97484092514145 
loop_ 
_atom_site_label 
_atom_site_type_symbol 
_atom_site_fract_x 
_atom_site_fract_y 
_atom_site_fract_z 
_atom_site_charge 
N1          N  0.04770615  0.50332980  0.96127076    -0.36700
N2          N  0.50081489  0.05519697  0.96928341    -0.57300
N3          N  0.45593072  0.00050980  0.97772088    -0.36700
N4          N  0.00246002  0.44919779  0.97223146    -0.57300
C5          C  0.06374718  0.03118576  0.96640712     0.26900
C6          C  0.06394067  0.47533402  0.97178757     0.26900
C7          C  0.43854473  0.02759475  0.98501822     0.26900
C8          C  0.43874598  0.47170859  0.98988620     0.26900
C9          C  0.02638476  0.07602185  0.95255971     0.35500
C10         C  0.47684731  0.07443537  0.96252512     0.35500
C11         C  0.02696457  0.43006962  0.96618256     0.35500
C12         C  0.47787375  0.42882750  0.97423110     0.35500
C13         C  0.09046126  0.02062552  0.98035177    -0.22000
C14         C  0.09061125  0.48536720  0.98364715    -0.22000
C15         C  0.40995172  0.01594115  0.00184969    -0.22000
C16         C  0.41002296  0.48085642  0.00482631    -0.22000
C17         C  0.01794067  0.10887610  0.93771824    -0.23100
C18         C  0.48571640  0.10776159  0.94511693    -0.23100
C19         C  0.01904582  0.39721062  0.96070263    -0.23100
C20         C  0.48764212  0.39709568  0.96424845    -0.23000
C21         C  0.05585527  0.06587120  0.95622141    -0.18400
C22         C  0.05613786  0.44106511  0.96891118    -0.18400
C23         C  0.44770585  0.43784676  0.98406453    -0.18400
C24         C  0.44703781  0.06264922  0.97325945    -0.18400
H25         H  0.10815044  0.03652028  0.98731151     0.14500
H26         H  0.10846738  0.46914110  0.99334110     0.14500
H27         H  0.39076508  0.03119245  0.01023717     0.14500
H28         H  0.39072666  0.46429853  0.01549577     0.14500
H29         H  0.03223354  0.13101219  0.92532356     0.12800
H30         H  0.47171648  0.12908578  0.93626176     0.12800
H31         H  0.03358030  0.37590692  0.95607389     0.12800
H32         H  0.47433413  0.37508744  0.96116004     0.12800
H33         H  0.02852192  0.50385416  0.94628572     0.26100
H34         H  0.47720477  0.00202826  0.96027672     0.26000
N35         N  0.45395842  0.99916087  0.27087931    -0.36700
N36         N  0.99670277  0.44344379  0.28290851    -0.57300
N37         N  0.04314185  0.49487166  0.28403001    -0.36700
N38         N  0.50009232  0.05102792  0.27042206    -0.57300
C39         C  0.43536111  0.47152806  0.27892124     0.26900
C40         C  0.43726185  0.02719782  0.27501161     0.26900
C41         C  0.05840245  0.46587785  0.29313615     0.26900
C42         C  0.06014563  0.02161076  0.28989269     0.26900
C43         C  0.47326146  0.42598068  0.27275209     0.35500
C44         C  0.02032148  0.42269919  0.28256566     0.35500
C45         C  0.47770072  0.07176301  0.25983236     0.35500
C46         C  0.02443255  0.06881112  0.27485215     0.35500
C47         C  0.40642086  0.48234870  0.28805652    -0.22000
C48         C  0.40766445  0.01732161  0.28616069    -0.22000
C49         C  0.08565297  0.47434265  0.30468258    -0.22000
C50         C  0.08672978  0.00941012  0.30268081    -0.22000
C51         C  0.48207565  0.39290859  0.26792204    -0.23100
C52         C  0.01180482  0.38998978  0.27704156    -0.23100
C53         C  0.48849700  0.10468682  0.24441140    -0.23100
C54         C  0.01789935  0.10275878  0.26193632    -0.23000
C55         C  0.44357933  0.43723786  0.27501802    -0.18400
C56         C  0.44752833  0.06163818  0.26462761    -0.18400
C57         C  0.05307395  0.05682301  0.28179926    -0.18400
C58         C  0.04925725  0.43218559  0.28895086    -0.18400
H59         H  0.38625785  0.46696398  0.29470939     0.14500
H60         H  0.38877003  0.03372929  0.29091243     0.14500
H61         H  0.10319443  0.45713857  0.31304086     0.14500
H62         H  0.10517720  0.02421626  0.30947483     0.14500
H63         H  0.46836358  0.37133823  0.26440801     0.12800
H64         H  0.02545214  0.36757375  0.27613172     0.12800
H65         H  0.47606491  0.12690751  0.23346116     0.12800
H66         H  0.03302598  0.12457046  0.25481743     0.12800
H67         H  0.47609609  0.99943601  0.25724393     0.26100
H68         H  0.02375203  0.49662441  0.26985453     0.26000
O69         O  0.19749554  0.31046321  0.05383472    -0.81000
O70         O  0.30643389  0.21354471  0.02728784    -0.65700
O71         O  0.24791653  0.28218990  0.50832323    -1.12300
C72         C  0.18610763  0.19129550  0.48656202     1.05900
O73         O  0.29437937  0.18313739  0.47527305    -0.78900
O74         O  0.25720717  0.21455958  0.42282972    -0.66500
Ni75       Ni  0.24023769  0.31478145  0.04997913     1.34900
C76         C  0.24377476  0.24191723  0.41219092     0.84600
O77         O  0.30815263  0.28200846  0.01993974    -0.79400
O78         O  0.28207234  0.32388883  0.04930534    -0.89700
C79         C  0.31211588  0.19108416  0.50118188     0.84200
O80         O  0.23833764  0.28332567  0.10368623    -0.67900
O81         O  0.21025192  0.17727967  0.47301163    -0.87200
C82         C  0.25220586  0.25605428  0.11330720     0.85000
C83         C  0.30650925  0.31082359  0.03456677     1.06600
H84         H  0.23980077  0.20440430  0.04652608     0.38400
O85         O  0.24595644  0.21667055  0.01697000    -1.09900
O86         O  0.22654937  0.25645711  0.44028166    -0.66500
Ni87       Ni  0.21658004  0.25108842  0.50486845     1.26300
O88         O  0.26894677  0.24199638  0.08416878    -0.66700
O89         O  0.18531614  0.21912363  0.50323940    -0.79000
C90         C  0.18235513  0.30745540  0.02239899     0.84400
O91         O  0.18932086  0.28715828  0.49435100    -0.66200
Ni92       Ni  0.25198323  0.18307050  0.47640687     1.27400
Ni93       Ni  0.27761072  0.24847865  0.01928299     1.26100
H94         H  0.25393385  0.29509980  0.47909266     0.39000
O95         O  0.19484213  0.30575642  0.30007340    -0.81000
O96         O  0.30746171  0.21616386  0.28571815    -0.65700
O97         O  0.24823597  0.28131414  0.25888894    -1.12300
C98         C  0.19533379  0.18227291  0.23704221     1.05900
O99         O  0.30343336  0.19261075  0.22514101    -0.78900
O100        O  0.26282115  0.21343339  0.17130615    -0.66500
Ni101      Ni  0.23662655  0.31400203  0.29893799     1.34900
C102        C  0.24853299  0.24018692  0.16064356     0.84600
O103        O  0.30656135  0.28446631  0.27852228    -0.79400
O104        O  0.27724001  0.32609793  0.30191591    -0.89700
C105        C  0.31692862  0.19597000  0.25824487     0.84200
O106        O  0.23438839  0.28419388  0.35388040    -0.67900
O107        O  0.22097332  0.17048688  0.22576330    -0.87200
C108        C  0.24830833  0.25732086  0.36494493     0.85000
C109        C  0.30268009  0.31339228  0.29231248     1.06600
H110        H  0.24296952  0.20292746  0.29574061     0.38400
O111        O  0.24962754  0.21599802  0.26685207    -1.09900
O112        O  0.23100404  0.25407362  0.18890725    -0.66500
Ni113      Ni  0.21932109  0.24743770  0.25295601     1.26300
O114        O  0.26597352  0.24303961  0.33723122    -0.66700
O115        O  0.19121172  0.21184959  0.24911748    -0.79000
C116        C  0.18088610  0.30137704  0.26790206     0.84400
O117        O  0.18991332  0.28077636  0.24075091    -0.66200
Ni118      Ni  0.26160767  0.18364532  0.22664353     1.27400
Ni119      Ni  0.27835780  0.24964199  0.27330183     1.26100
H120        H  0.25494858  0.29415335  0.22986089     0.39000
C121        C  0.07137616  0.40469673  0.29211720    -0.05300
C122        C  0.07594690  0.38782964  0.33414158    -0.05300
C123        C  0.09706078  0.36231099  0.33749171    -0.23400
C124        C  0.11365060  0.35314017  0.29876453     0.18800
C125        C  0.10812293  0.36880160  0.25612212     0.16000
C126        C  0.08706766  0.39473308  0.25308252    -0.18500
C127        C  0.12420186  0.35868125  0.21747147    -0.20300
C128        C  0.14668465  0.33463309  0.22112096    -0.12900
C129        C  0.15352956  0.32075365  0.26343155     0.03800
C130        C  0.13630743  0.32934655  0.30207984    -0.25000
H131        H  0.06323846  0.39466629  0.36427914     0.08900
H132        H  0.10059006  0.34992440  0.37032194     0.12500
H133        H  0.08297471  0.40736416  0.22060606     0.12400
H134        H  0.12000788  0.37009740  0.18450985     0.12200
H135        H  0.15980330  0.32837659  0.19095565     0.12700
H136        H  0.14131450  0.31842896  0.33484680     0.14700
C137        C  0.41986694  0.41182257  0.27233283    -0.05300
C138        C  0.41825638  0.39924911  0.23175243    -0.05300
C139        C  0.39607648  0.37563855  0.22839535    -0.23400
C140        C  0.37461653  0.36484528  0.26531003     0.18800
C141        C  0.37583916  0.37765779  0.30623450     0.16000
C142        C  0.39884321  0.40046743  0.30976271    -0.18500
C143        C  0.35356774  0.36813012  0.34249882    -0.20300
C144        C  0.33005313  0.34668417  0.33801741    -0.12900
C145        C  0.32879557  0.33369432  0.29764336     0.03800
C146        C  0.35143806  0.34231727  0.26160535    -0.25000
H147        H  0.43429368  0.40777667  0.20262082     0.08900
H148        H  0.39537430  0.36633207  0.19669423     0.12500
H149        H  0.40002355  0.41012376  0.34113983     0.12400
H150        H  0.35384010  0.37803248  0.37388222     0.12200
H151        H  0.31267000  0.34033340  0.36605876     0.12700
H152        H  0.35024129  0.33275582  0.23016882     0.14700
C153        C  0.34421145  0.17625260  0.26400675    -0.05300
C154        C  0.35829647  0.17658197  0.30230772    -0.05300
C155        C  0.38243256  0.15546380  0.30932695    -0.23400
C156        C  0.39280667  0.13352645  0.27828182     0.18800
C157        C  0.37929853  0.13379620  0.23908071     0.16000
C158        C  0.35530345  0.15515671  0.23216844    -0.18500
C159        C  0.38944809  0.11199652  0.20786410    -0.20300
C160        C  0.41218250  0.08932511  0.21598352    -0.12900
C161        C  0.42522423  0.08815678  0.25527089     0.03800
C162        C  0.41586722  0.11069121  0.28612129    -0.25000
H163        H  0.35023851  0.19258158  0.32738459     0.08900
H164        H  0.39259512  0.15581098  0.33942124     0.12500
H165        H  0.34478643  0.15462879  0.20240479     0.12400
H166        H  0.37940194  0.11199236  0.17759613     0.12200
H167        H  0.41929212  0.07208690  0.19199657     0.12700
H168        H  0.42592453  0.10967861  0.31654609     0.14700
C169        C  0.16945620  0.15949170  0.23692341    -0.05300
C170        C  0.17093158  0.13594624  0.20603481    -0.05300
C171        C  0.14820396  0.11176804  0.20815172    -0.23400
C172        C  0.12377101  0.11012256  0.24184364     0.18600
C173        C  0.12190074  0.13367609  0.27314243     0.16000
C174        C  0.14453736  0.15859025  0.27005776    -0.18500
C175        C  0.09775163  0.13134465  0.30753012    -0.20300
C176        C  0.07574703  0.10598585  0.31086061    -0.12900
C177        C  0.07726498  0.08281267  0.27953651     0.03800
C178        C  0.10136685  0.08506114  0.24504023    -0.25000
H179        H  0.18993368  0.13604412  0.18035854     0.08900
H180        H  0.15004294  0.09389658  0.18395532     0.12500
H181        H  0.14341522  0.17621543  0.29454127     0.12400
H182        H  0.09599836  0.14894165  0.33206127     0.12200
H183        H  0.05735398  0.10452548  0.33774370     0.12700
H184        H  0.10258340  0.06725961  0.22075828     0.14700
C185        C  0.07984133  0.41513895  0.97078663    -0.05300
C186        C  0.09948896  0.41179605  0.43199530    -0.05300
C187        C  0.12257462  0.38849471  0.43403621    -0.23400
C188        C  0.12680435  0.36871579  0.97495980     0.18800
C189        C  0.10675391  0.37199631  0.01392126     0.16000
C190        C  0.08308749  0.39477305  0.01139208    -0.18500
C191        C  0.11127661  0.35321397  0.05497543    -0.20300
C192        C  0.13573641  0.33192652  0.05760542    -0.12900
C193        C  0.15545993  0.32806213  0.01899952     0.03800
C194        C  0.15058283  0.34608581  0.97755935    -0.25000
H195        H  0.09748181  0.42767957  0.40062089     0.08900
H196        H  0.13787733  0.38651666  0.40397814     0.12500
H197        H  0.06769384  0.39747588  0.04113370     0.12400
H198        H  0.09633070  0.35564947  0.08524203     0.12200
H199        H  0.13929070  0.31842219  0.08985904     0.12700
H200        H  0.16609413  0.34370437  0.94781355     0.14700
C201        C  0.42418488  0.41070858  0.98751404    -0.05300
C202        C  0.41811973  0.39735634  0.44836850    -0.05300
C203        C  0.39567366  0.37267914  0.45068979    -0.23400
C204        C  0.37767441  0.36228331  0.99188719     0.18800
C205        C  0.38315958  0.37546204  0.03097577     0.16000
C206        C  0.40680125  0.39895804  0.02873841    -0.18500
C207        C  0.36430115  0.36573973  0.07127431    -0.20300
C208        C  0.33971399  0.34414214  0.07250351    -0.12900
C209        C  0.33409518  0.33087168  0.03392227     0.03800
C210        C  0.35353885  0.33950318  0.99382639    -0.25000
H211        H  0.43138306  0.40591258  0.41641302     0.08900
H212        H  0.39227363  0.36242644  0.42054923     0.12500
H213        H  0.41106713  0.40908555  0.05863567     0.12400
H214        H  0.36805938  0.37562978  0.10154814     0.12200
H215        H  0.32488748  0.33791968  0.10361117     0.12700
H216        H  0.34899112  0.32988018  0.96371996     0.14700
C217        C  0.42298363  0.08823272  0.47211796    -0.05300
C218        C  0.40603054  0.08917965  0.43686513    -0.05300
C219        C  0.38207708  0.11104441  0.43444568    -0.23400
C220        C  0.37459791  0.13230329  0.46738878     0.18800
C221        C  0.39200397  0.13241486  0.50239920     0.16000
C222        C  0.41641908  0.10992708  0.00301943    -0.18500
C223        C  0.38425622  0.15392355  0.53514580    -0.20300
C224        C  0.35887915  0.17407190  0.53412765    -0.12900
C225        C  0.34081133  0.17301050  0.50037761     0.03800
C226        C  0.34940782  0.15263616  0.46648287    -0.25000
H227        H  0.41109353  0.07242771  0.41160364     0.08900
H228        H  0.36899976  0.11077560  0.40732137     0.12500
H229        H  0.42954571  0.10884276  0.03029064     0.12400
H230        H  0.39774190  0.15350360  0.06152023     0.12200
H231        H  0.35291546  0.18965855  0.56047947     0.12700
H232        H  0.33602781  0.15182875  0.43979441     0.14700
C233        C  0.15778365  0.17395666  0.48307003    -0.05300
C234        C  0.13249715  0.17701841  0.51429054    -0.05300
C235        C  0.10655119  0.15818167  0.51362589    -0.23400
C236        C  0.10528233  0.13626656  0.48133241     0.18800
C237        C  0.13007597  0.13439659  0.44829510     0.16000
C238        C  0.15617723  0.15304947  0.44954593    -0.18500
C239        C  0.12868719  0.11299415  0.41547165    -0.20300
C240        C  0.10369018  0.09212589  0.41693236    -0.12900
C241        C  0.07960143  0.09234496  0.45106562     0.03800
C242        C  0.08014384  0.11524052  0.48247897    -0.25000
H243        H  0.13314193  0.19305522  0.54028501     0.08900
H244        H  0.08770534  0.16018392  0.53898412     0.12500
H245        H  0.17539867  0.15088862  0.42485351     0.12400
H246        H  0.14728940  0.11158162  0.38950491     0.12200
H247        H  0.10356766  0.07469918  0.39241602     0.12700
H248        H  0.06162928  0.11544221  0.50893810     0.14700
N249        N  0.04738747  0.50326944  0.46119669    -0.36700
N250        N  0.50068766  0.05498443  0.47144644    -0.57300
N251        N  0.45555589  0.00057918  0.47870295    -0.36700
N252        N  0.00210579  0.44920951  0.47087574    -0.57300
C253        C  0.06361602  0.03104804  0.46609555     0.26900
C254        C  0.06364373  0.47519994  0.47119974     0.26900
C255        C  0.43830771  0.02764325  0.48666689     0.26900
C256        C  0.43819455  0.47190529  0.49000598     0.26900
C257        C  0.02602075  0.07591432  0.45388320     0.35500
C258        C  0.47676321  0.07440100  0.46504888     0.35500
C259        C  0.02662881  0.43014592  0.46472699     0.35500
C260        C  0.47717486  0.42895857  0.47385490     0.35500
C261        C  0.09053543  0.02040898  0.47918972    -0.22000
C262        C  0.09053217  0.48512714  0.48247432    -0.22000
C263        C  0.40965177  0.01604229  0.50316109    -0.22000
C264        C  0.40950258  0.48110030  0.50504919    -0.22000
C265        C  0.01745897  0.10891062  0.44002471    -0.23100
C266        C  0.48571314  0.10774300  0.44789179    -0.23100
C267        C  0.01879463  0.39746705  0.45835687    -0.23100
C268        C  0.48686431  0.39716155  0.46400514    -0.23000
C269        C  0.05557854  0.06575036  0.45670996    -0.18400
C270        C  0.05571938  0.44098110  0.46819379    -0.18400
C271        C  0.44702910  0.43810147  0.48356001    -0.18400
C272        C  0.44692097  0.06270410  0.47553369    -0.18400
H273        H  0.10840292  0.03624522  0.48571789     0.14500
H274        H  0.10848455  0.46884123  0.49162015     0.14500
H275        H  0.39053877  0.03131195  0.51189480     0.14500
H276        H  0.39009340  0.46465110  0.51516464     0.14500
H277        H  0.03166779  0.13118304  0.42807094     0.12800
H278        H  0.47177216  0.12917535  0.43927092     0.12800
H279        H  0.03336044  0.37622753  0.45348735     0.12800
H280        H  0.47352585  0.37519012  0.46088178     0.12800
H281        H  0.02798597  0.50391329  0.44676451     0.26100
H282        H  0.47683834  0.00218052  0.46129260     0.26000
N283        N  0.45372080  0.99870031  0.77156785    -0.36700
N284        N  0.99681446  0.44342712  0.78236474    -0.57300
N285        N  0.04302302  0.49507794  0.78316097    -0.36700
N286        N  0.49962779  0.05103722  0.77008975    -0.57300
C287        C  0.43526313  0.47097307  0.78049867     0.26900
C288        C  0.43692969  0.02668829  0.77556125     0.26900
C289        C  0.05830964  0.46616045  0.79263552     0.26900
C290        C  0.05976626  0.02183663  0.78966093     0.26900
C291        C  0.47331119  0.42554884  0.77536416     0.35500
C292        C  0.02050279  0.42278967  0.78192538     0.35500
C293        C  0.47716056  0.07144735  0.75899387     0.35500
C294        C  0.02414236  0.06888863  0.77380189     0.35500
C295        C  0.40631631  0.48166045  0.79007953    -0.22000
C296        C  0.40741254  0.01667251  0.78742730    -0.22000
C297        C  0.08532449  0.47472907  0.80486570    -0.22000
C298        C  0.08619678  0.00972780  0.80311101    -0.22000
C299        C  0.48223744  0.39235983  0.77159410    -0.23100
C300        C  0.01205918  0.38999615  0.77664893    -0.23100
C301        C  0.48782145  0.10428167  0.74260490    -0.23100
C302        C  0.01765467  0.10274439  0.76027573    -0.23000
C303        C  0.44361191  0.43666348  0.77703827    -0.18400
C304        C  0.44701983  0.06115355  0.76443886    -0.18400
C305        C  0.05268748  0.05701597  0.78138039    -0.18400
C306        C  0.04938828  0.43243431  0.78830273    -0.18400
H307        H  0.38622762  0.46615764  0.79750691     0.14500
H308        H  0.38848109  0.03300669  0.79231946     0.14500
H309        H  0.10282496  0.45761036  0.81365377     0.14500
H310        H  0.10443855  0.02458569  0.81045206     0.14500
H311        H  0.46859993  0.37057041  0.76865195     0.12800
H312        H  0.02577062  0.36762682  0.77582314     0.12800
H313        H  0.47529183  0.12626239  0.73109458     0.12800
H314        H  0.03279046  0.12454913  0.75304041     0.12800
H315        H  0.47578409  0.99900503  0.75749701     0.26100
H316        H  0.02386630  0.49676544  0.76835209     0.26000
O317        O  0.19716341  0.31047704  0.55378087    -0.81000
O318        O  0.30588377  0.21352263  0.52695770    -0.65700
O319        O  0.24836728  0.28219560  0.00875166    -1.12300
C320        C  0.18691089  0.19036889  0.98752119     1.05900
O321        O  0.29536438  0.18468940  0.97392868    -0.78900
O322        O  0.25680523  0.21390218  0.92267742    -0.66500
Ni323      Ni  0.23991127  0.31481490  0.54955444     1.34900
C324        C  0.24392864  0.24168661  0.91225253     0.84600
O325        O  0.30770183  0.28185129  0.51932361    -0.79400
O326        O  0.28174973  0.32390377  0.54847914    -0.89700
C327        C  0.31285762  0.19170833  0.00067683     0.84200
O328        O  0.23817398  0.28349280  0.60341844    -0.67900
O329        O  0.21109808  0.17595861  0.97510934    -0.87200
C330        C  0.25192254  0.25612376  0.61301352     0.85000
C331        C  0.30613522  0.31072386  0.53378569     1.06600
H332        H  0.23917598  0.20435298  0.54638483     0.38400
O333        O  0.24530452  0.21662511  0.51682432    -1.09900
O334        O  0.22731176  0.25667499  0.94051860    -0.66500
Ni335      Ni  0.21712856  0.25096507  0.00498499     1.26300
O336        O  0.26849560  0.24196325  0.58379560    -0.66700
O337        O  0.18601118  0.21882172  0.00279109    -0.79000
C338        C  0.18199500  0.30766563  0.52233166     0.84400
O339        O  0.18974884  0.28690162  0.99450133    -0.66200
Ni340      Ni  0.25287545  0.18300105  0.97678993     1.27400
Ni341      Ni  0.27707131  0.24839356  0.51888552     1.26100
H342        H  0.25442079  0.29516675  0.97957175     0.39000
O343        O  0.19474369  0.30467456  0.80095021    -0.81000
O344        O  0.30746209  0.21614550  0.78549259    -0.65700
O345        O  0.24815049  0.28119554  0.75897301    -1.12300
C346        C  0.19537831  0.18194957  0.73740909     1.05900
O347        O  0.30348991  0.19305636  0.72454609    -0.78900
O348        O  0.26253714  0.21340107  0.67096746    -0.66500
Ni349      Ni  0.23644986  0.31381610  0.79903275     1.34900
C350        C  0.24831440  0.24023508  0.66039685     0.84600
O351        O  0.30637585  0.28442133  0.77901329    -0.79400
O352        O  0.27703411  0.32649620  0.80114187    -0.89700
C353        C  0.31698879  0.19619044  0.75773254     0.84200
O354        O  0.23489225  0.28431651  0.85414763    -0.67900
O355        O  0.22104287  0.17021847  0.72605740    -0.87200
C356        C  0.24845379  0.25713412  0.86502923     0.85000
C357        C  0.30246761  0.31358476  0.79214899     1.06600
H358        H  0.24298360  0.20278641  0.79541381     0.38400
O359        O  0.24964621  0.21594517  0.76658653    -1.09900
O360        O  0.23091117  0.25416257  0.68878340    -0.66500
Ni361      Ni  0.21927810  0.24732359  0.75288857     1.26300
O362        O  0.26576947  0.24260603  0.83717025    -0.66700
O363        O  0.19120522  0.21165962  0.74907064    -0.79000
C364        C  0.18088624  0.30107490  0.76841878     0.84400
O365        O  0.18983339  0.28068557  0.74093861    -0.66200
Ni366      Ni  0.26168299  0.18369266  0.72636175     1.27400
Ni367      Ni  0.27829528  0.24957925  0.77331229     1.26100
H368        H  0.25486639  0.29407390  0.72997107     0.39000
C369        C  0.07161529  0.40508691  0.79172339    -0.05300
C370        C  0.07645988  0.38875849  0.83389286    -0.05300
C371        C  0.09770450  0.36341333  0.83749085    -0.23400
C372        C  0.11418040  0.35389727  0.79888788     0.18800
C373        C  0.10846418  0.36909910  0.75613732     0.16000
C374        C  0.08725665  0.39484213  0.75283284    -0.18500
C375        C  0.12445362  0.35866142  0.71763180    -0.20300
C376        C  0.14689741  0.33459202  0.72149934    -0.12900
C377        C  0.15381721  0.32100262  0.76387798     0.03800
C378        C  0.13682820  0.33010931  0.80241905    -0.25000
H379        H  0.06386487  0.39588463  0.86395078     0.08900
H380        H  0.10138916  0.35138730  0.87041125     0.12500
H381        H  0.08299526  0.40709664  0.72025993     0.12400
H382        H  0.12015053  0.36976069  0.68459651     0.12200
H383        H  0.15985756  0.32798151  0.69140754     0.12700
H384        H  0.14190264  0.31946373  0.83525147     0.14700
C385        C  0.42006311  0.41111553  0.77409944    -0.05300
C386        C  0.41884295  0.39837499  0.73351823    -0.05300
C387        C  0.39664375  0.37490231  0.72975939    -0.23400
C388        C  0.37479416  0.36440257  0.76626155     0.18800
C389        C  0.37572850  0.37725150  0.80723748     0.16000
C390        C  0.39874972  0.39989306  0.81119178    -0.18500
C391        C  0.35313797  0.36798104  0.84311063    -0.20300
C392        C  0.32956656  0.34680054  0.83817463    -0.12900
C393        C  0.32855475  0.33381284  0.79774425     0.03800
C394        C  0.35152392  0.34213905  0.76210120    -0.25000
H395        H  0.43514704  0.40674212  0.70466012     0.08900
H396        H  0.39620798  0.36552306  0.69804292     0.12500
H397        H  0.39967210  0.40960738  0.84259736     0.12400
H398        H  0.35321864  0.37787765  0.87453890     0.12200
H399        H  0.31195810  0.34062160  0.86593285     0.12700
H400        H  0.35054486  0.33253247  0.73063645     0.14700
C401        C  0.34428352  0.17645700  0.76334348    -0.05300
C402        C  0.35860606  0.17700512  0.80138066    -0.05300
C403        C  0.38268589  0.15579680  0.80838828    -0.23400
C404        C  0.39271145  0.13348305  0.77766221     0.18800
C405        C  0.37897953  0.13353788  0.73870212     0.16000
C406        C  0.35510653  0.15507518  0.73171962    -0.18500
C407        C  0.38874523  0.11131003  0.70785044    -0.20300
C408        C  0.41130307  0.08842191  0.71612396    -0.12900
C409        C  0.42459161  0.08752220  0.75514797     0.03800
C410        C  0.41563384  0.11048204  0.78560434    -0.25000
H411        H  0.35077546  0.19324781  0.82627479     0.08900
H412        H  0.39304342  0.15633235  0.83827019     0.12500
H413        H  0.34441238  0.15438707  0.70215386     0.12400
H414        H  0.37852884  0.11114315  0.67776330     0.12200
H415        H  0.41814509  0.07089406  0.69240551     0.12700
H416        H  0.42591873  0.10970731  0.81579650     0.14700
C417        C  0.16953692  0.15898343  0.73770622    -0.05300
C418        C  0.17104924  0.13530273  0.70700349    -0.05300
C419        C  0.14826177  0.11123749  0.70903781    -0.23400
C420        C  0.12369398  0.10983496  0.74244774     0.18600
C421        C  0.12183427  0.13335574  0.77378580     0.16000
C422        C  0.14458438  0.15815028  0.77082835    -0.18500
C423        C  0.09752244  0.13116957  0.80793851    -0.20300
C424        C  0.07530648  0.10608413  0.81084182    -0.12900
C425        C  0.07683871  0.08299988  0.77939788     0.03800
C426        C  0.10112566  0.08505105  0.74525244    -0.25000
H427        H  0.19008951  0.13527969  0.68141942     0.08900
H428        H  0.15011033  0.09332570  0.68489277     0.12500
H429        H  0.14345467  0.17582608  0.79524833     0.12400
H430        H  0.09578292  0.14868980  0.83256447     0.12200
H431        H  0.05679430  0.10471781  0.83752592     0.12700
H432        H  0.10237080  0.06727463  0.72093514     0.14700
C433        C  0.07930148  0.41495200  0.47027822    -0.05300
C434        C  0.10022790  0.41236944  0.93256250    -0.05300
C435        C  0.12330425  0.38902297  0.93444738    -0.23400
C436        C  0.12629427  0.36864049  0.47476275     0.18800
C437        C  0.10644314  0.37230949  0.51379087     0.16000
C438        C  0.08274395  0.39502988  0.51111981    -0.18500
C439        C  0.11120280  0.35396705  0.55500485    -0.20300
C440        C  0.13567192  0.33269210  0.55768468    -0.12900
C441        C  0.15517064  0.32841463  0.51900286     0.03800
C442        C  0.15009090  0.34606105  0.47745634    -0.25000
H443        H  0.09834884  0.42853041  0.90134243     0.08900
H444        H  0.13875277  0.38734007  0.90444706     0.12500
H445        H  0.06750593  0.39806015  0.54090204     0.12400
H446        H  0.09641989  0.35670662  0.58532383     0.12200
H447        H  0.13938472  0.31948672  0.59002450     0.12700
H448        H  0.16543661  0.34338342  0.44764168     0.14700
C449        C  0.42346922  0.41101566  0.48683651    -0.05300
C450        C  0.41849223  0.39744486  0.94895060    -0.05300
C451        C  0.39582959  0.37305026  0.95123534    -0.23400
C452        C  0.37735231  0.36207174  0.49123854     0.18800
C453        C  0.38249757  0.37566369  0.53020063     0.16000
C454        C  0.40594562  0.39939007  0.52796359    -0.18500
C455        C  0.36351373  0.36609902  0.57039501    -0.20300
C456        C  0.33908075  0.34430685  0.57162098    -0.12900
C457        C  0.33373454  0.33069697  0.53315742     0.03800
C458        C  0.35336032  0.33908232  0.49319287    -0.25000
H459        H  0.43159971  0.40616937  0.91691860     0.08900
H460        H  0.39212575  0.36314996  0.92098636     0.12500
H461        H  0.40998826  0.40974175  0.55781155     0.12400
H462        H  0.36703009  0.37629441  0.60056597     0.12200
H463        H  0.32411450  0.33825485  0.60262001     0.12700
H464        H  0.34902684  0.32917280  0.46317167     0.14700
C465        C  0.42305570  0.08814371  0.97022643    -0.05300
C466        C  0.40608887  0.08952707  0.93493810    -0.05300
C467        C  0.38226474  0.11163340  0.93279497    -0.23400
C468        C  0.37492668  0.13265305  0.96607818     0.18800
C469        C  0.39227526  0.13218136  0.00123813     0.16000
C470        C  0.41628241  0.11036301  0.50448870    -0.18500
C471        C  0.38463371  0.15335260  0.03441636    -0.20300
C472        C  0.35942698  0.17379678  0.03363213    -0.12900
C473        C  0.34144828  0.17340421  0.99965146     0.03800
C474        C  0.34993663  0.15332828  0.96536361    -0.25000
H475        H  0.41108013  0.07300820  0.90938434     0.08900
H476        H  0.36919288  0.11176458  0.90559737     0.12500
H477        H  0.42941800  0.10966222  0.53170607     0.12400
H478        H  0.39741340  0.15456745  0.56210097     0.12200
H479        H  0.35352473  0.18909484  0.06031623     0.12700
H480        H  0.33660426  0.15298641  0.93852814     0.14700
C481        C  0.15862660  0.17287040  0.98404832    -0.05300
C482        C  0.13298726  0.17681689  0.01420652    -0.05300
C483        C  0.10689178  0.15838302  0.01301519    -0.23400
C484        C  0.10580072  0.13604541  0.98116154     0.18800
C485        C  0.13102697  0.13318881  0.94924176     0.16000
C486        C  0.15729423  0.15132631  0.95115067    -0.18500
C487        C  0.12981929  0.11148479  0.91671852    -0.20300
C488        C  0.10451369  0.09130486  0.91740203    -0.12900
C489        C  0.07998037  0.09235855  0.95060874     0.03800
C490        C  0.08037860  0.11559803  0.98164176    -0.25000
H491        H  0.13340697  0.19335766  0.03969025     0.08900
H492        H  0.08773004  0.16114434  0.03752319     0.12500
H493        H  0.17678991  0.14846076  0.92725519     0.12400
H494        H  0.14876568  0.10932409  0.89158515     0.12200
H495        H  0.10451882  0.07361939  0.89317560     0.12700
H496        H  0.06152941  0.11645963  0.00739060     0.14700
N497        N  0.04772904  0.00348609  0.96111365    -0.36700
N498        N  0.50083451  0.55515348  0.96942935    -0.57300
N499        N  0.45592002  0.50048752  0.97788867    -0.36700
N500        N  0.00251467  0.94930456  0.97212136    -0.57300
C501        C  0.06373568  0.53099957  0.96663927     0.26900
C502        C  0.06398755  0.97551431  0.97165383     0.26900
C503        C  0.43855595  0.52757202  0.98527678     0.26900
C504        C  0.43876669  0.97172439  0.98973260     0.26900
C505        C  0.02642369  0.57588655  0.95274682     0.35500
C506        C  0.47686404  0.57440076  0.96272047     0.35500
C507        C  0.02703783  0.93020108  0.96609872     0.35500
C508        C  0.47792698  0.92884596  0.97420499     0.35500
C509        C  0.09042956  0.52039425  0.98061639    -0.22000
C510        C  0.09066415  0.98559482  0.98344721    -0.22000
C511        C  0.40996822  0.51592475  0.00215748    -0.22000
C512        C  0.41002733  0.98086820  0.00458784    -0.22000
C513        C  0.01801717  0.60875183  0.93788208    -0.23100
C514        C  0.48573526  0.60772014  0.94527994    -0.23100
C515        C  0.01914833  0.89733347  0.96061401    -0.23100
C516        C  0.48771122  0.89711296  0.96425208    -0.23000
C517        C  0.05587891  0.56569939  0.95647464    -0.18400
C518        C  0.05620198  0.94122555  0.96884768    -0.18400
C519        C  0.44775051  0.93785516  0.98399284    -0.18400
C520        C  0.44705307  0.56262464  0.97352228    -0.18400
H521        H  0.10812101  0.53625776  0.98763369     0.14500
H522        H  0.10853924  0.96939799  0.99313587     0.14500
H523        H  0.39079588  0.53117963  0.01061314     0.14500
H524        H  0.39073519  0.96430181  0.01524655     0.14500
H525        H  0.03233390  0.63087239  0.92551715     0.12800
H526        H  0.47173353  0.62904838  0.93645038     0.12800
H527        H  0.03370150  0.87604354  0.95600119     0.12800
H528        H  0.47441286  0.87509720  0.96116251     0.12800
H529        H  0.02853092  0.00397404  0.94616708     0.26100
H530        H  0.47717756  0.50201073  0.96038591     0.26000
N531        N  0.45397480  0.49915745  0.27067711    -0.36700
N532        N  0.99669789  0.94343037  0.28296854    -0.57300
N533        N  0.04314477  0.99488189  0.28398126    -0.36700
N534        N  0.50011537  0.55100859  0.27026069    -0.57300
C535        C  0.43534964  0.97152645  0.27918389     0.26900
C536        C  0.43727473  0.52720108  0.27473706     0.26900
C537        C  0.05841291  0.96589379  0.29308218     0.26900
C538        C  0.06013870  0.52159222  0.28998060     0.26900
C539        C  0.47325343  0.92600101  0.27286919     0.35500
C540        C  0.02032187  0.92269525  0.28259750     0.35500
C541        C  0.47772473  0.57176429  0.25971785     0.35500
C542        C  0.02444657  0.56880739  0.27490699     0.35500
C543        C  0.40641581  0.98233928  0.28843338    -0.22000
C544        C  0.40766907  0.51733149  0.28577471    -0.22000
C545        C  0.08567516  0.97437000  0.30457831    -0.22000
C546        C  0.08671058  0.50938164  0.30280259    -0.22000
C547        C  0.48207553  0.89294038  0.26797998    -0.23100
C548        C  0.01180674  0.88998035  0.27709347    -0.23100
C549        C  0.48852167  0.60470815  0.24444252    -0.23100
C550        C  0.01792289  0.60276160  0.26201713    -0.23000
C551        C  0.44356443  0.93724352  0.27522106    -0.18400
C552        C  0.44755209  0.56164251  0.26442386    -0.18400
C553        C  0.05307688  0.55680679  0.28189280    -0.18400
C554        C  0.04926224  0.93219530  0.28893883    -0.18400
H555        H  0.38625388  0.96695326  0.29515139     0.14500
H556        H  0.38877047  0.53374231  0.29045656     0.14500
H557        H  0.10322559  0.95717253  0.31291607     0.14500
H558        H  0.10515167  0.52418181  0.30962925     0.14500
H559        H  0.46836484  0.87136633  0.26447605     0.12800
H560        H  0.02546024  0.86757065  0.27615973     0.12800
H561        H  0.47609149  0.62695069  0.23356786     0.12800
H562        H  0.03305395  0.62456989  0.25495617     0.12800
H563        H  0.47613042  0.49942039  0.25714449     0.26100
H564        H  0.02374725  0.99662388  0.26982735     0.26000
O565        O  0.19751425  0.81049452  0.05387921    -0.81000
O566        O  0.30639687  0.71351806  0.02742766    -0.65700
O567        O  0.24794956  0.78216419  0.50837807    -1.12300
C568        C  0.18608053  0.69130687  0.48667884     1.05900
O569        O  0.29434835  0.68307260  0.47545211    -0.78900
O570        O  0.25720387  0.71450226  0.42294096    -0.66500
Ni571      Ni  0.24025870  0.81482544  0.04997960     1.34900
C572        C  0.24378041  0.74186384  0.41228202     0.84600
O573        O  0.30815967  0.78199065  0.02001974    -0.79400
O574        O  0.28209815  0.82394538  0.04924037    -0.89700
C575        C  0.31205086  0.69097062  0.50143937     0.84200
O576        O  0.23838052  0.78341377  0.10373744    -0.67900
O577        O  0.21022314  0.67727577  0.47315311    -0.87200
C578        C  0.25220241  0.75610832  0.11337113     0.85000
C579        C  0.30653028  0.81084131  0.03455884     1.06600
H580        H  0.23976345  0.70442029  0.04660363     0.38400
O581        O  0.24592705  0.71668320  0.01704794    -1.09900
O582        O  0.22655990  0.75641918  0.44036002    -0.66500
Ni583      Ni  0.21658250  0.75109363  0.50493757     1.26300
O584        O  0.26890963  0.74201039  0.08423911    -0.66700
O585        O  0.18529350  0.71915183  0.50332096    -0.79000
C586        C  0.18237043  0.80751988  0.02243631     0.84400
O587        O  0.18935632  0.78719539  0.49437064    -0.66200
Ni588      Ni  0.25195365  0.68303488  0.47655013     1.27400
Ni589      Ni  0.27759723  0.74847424  0.01936230     1.26100
H590        H  0.25399030  0.79504601  0.47913634     0.39000
O591        O  0.19482385  0.80575430  0.30018508    -0.81000
O592        O  0.30748436  0.71618376  0.28571956    -0.65700
O593        O  0.24823201  0.78133849  0.25899450    -1.12300
C594        C  0.19531443  0.68229885  0.23716003     1.05900
O595        O  0.30342016  0.69264304  0.22514231    -0.78900
O596        O  0.26277755  0.71345677  0.17136126    -0.66500
Ni597      Ni  0.23660770  0.81398657  0.29909144     1.34900
C598        C  0.24851684  0.74023507  0.16071044     0.84600
O599        O  0.30655952  0.78449931  0.27860367    -0.79400
O600        O  0.27721543  0.82607338  0.30211811    -0.89700
C601        C  0.31693048  0.69598540  0.25823595     0.84200
O602        O  0.23436044  0.78412220  0.35398452    -0.67900
O603        O  0.22094910  0.67050222  0.22587540    -0.87200
C604        C  0.24831259  0.75727071  0.36503504     0.85000
C605        C  0.30266301  0.81339963  0.29246679     1.06600
H606        H  0.24297594  0.70295147  0.29580250     0.38400
O607        O  0.24963100  0.71602401  0.26691452    -1.09900
O608        O  0.23100687  0.75413310  0.18898486    -0.66500
Ni609      Ni  0.21932207  0.74746670  0.25303750     1.26300
O610        O  0.26600436  0.74302730  0.33731193    -0.66700
O611        O  0.19120418  0.71188611  0.24920221    -0.79000
C612        C  0.18088002  0.80138728  0.26799599     0.84400
O613        O  0.18991867  0.78080172  0.24083494    -0.66200
Ni614      Ni  0.26159055  0.68367020  0.22669791     1.27400
Ni615      Ni  0.27836456  0.74966593  0.27336781     1.26100
H616        H  0.25493791  0.79419763  0.22997695     0.39000
C617        C  0.07137809  0.90470910  0.29212252    -0.05300
C618        C  0.07595224  0.88786761  0.33415761    -0.05300
C619        C  0.09706022  0.86234601  0.33752753    -0.23400
C620        C  0.11364377  0.85315275  0.29881061     0.18800
C621        C  0.10811097  0.86878763  0.25615836     0.16000
C622        C  0.08705749  0.89471789  0.25309790    -0.18500
C623        C  0.12418565  0.85864531  0.21751951    -0.20300
C624        C  0.14667362  0.83460699  0.22119001    -0.12900
C625        C  0.15352422  0.82075793  0.26350960     0.03800
C626        C  0.13630190  0.82936561  0.30214643    -0.25000
H627        H  0.06325030  0.89472582  0.36428759     0.08900
H628        H  0.10059131  0.84997611  0.37036457     0.12500
H629        H  0.08295838  0.90732840  0.22061429     0.12400
H630        H  0.11998657  0.87003930  0.18455110     0.12200
H631        H  0.15979089  0.82833447  0.19103247     0.12700
H632        H  0.14131135  0.81846756  0.33491972     0.14700
C633        C  0.41984880  0.91182914  0.27254119    -0.05300
C634        C  0.41824686  0.89924444  0.23196539    -0.05300
C635        C  0.39607192  0.87562942  0.22860748    -0.23400
C636        C  0.37460073  0.86485074  0.26551108     0.18800
C637        C  0.37580775  0.87767992  0.30642818     0.16000
C638        C  0.39881544  0.90048307  0.30996444    -0.18500
C639        C  0.35351802  0.86817469  0.34267452    -0.20300
C640        C  0.33000173  0.84673399  0.33817896    -0.12900
C641        C  0.32876797  0.83371498  0.29781633     0.03800
C642        C  0.35142737  0.84231934  0.26179942    -0.25000
H643        H  0.43429013  0.90776369  0.20283795     0.08900
H644        H  0.39538092  0.86631030  0.19691175     0.12500
H645        H  0.39998933  0.91014352  0.34134059     0.12400
H646        H  0.35378121  0.87808666  0.37405470     0.12200
H647        H  0.31260366  0.84040248  0.36620367     0.12700
H648        H  0.35024795  0.83274052  0.23036948     0.14700
C649        C  0.34420393  0.67623901  0.26397907    -0.05300
C650        C  0.35825598  0.67648601  0.30232508    -0.05300
C651        C  0.38238008  0.65534571  0.30932858    -0.23400
C652        C  0.39278311  0.63347209  0.27821731     0.18800
C653        C  0.37931477  0.63382619  0.23896704     0.16000
C654        C  0.35532037  0.65520001  0.23207900    -0.18500
C655        C  0.38951231  0.61210617  0.20766972    -0.20300
C656        C  0.41225567  0.58943438  0.21575376    -0.12900
C657        C  0.42525282  0.58817803  0.25509300     0.03800
C658        C  0.41584213  0.61062746  0.28603073    -0.25000
H659        H  0.35018076  0.69243881  0.32744915     0.08900
H660        H  0.39251944  0.65563653  0.33945315     0.12500
H661        H  0.34483052  0.65473698  0.20227774     0.12400
H662        H  0.37950154  0.61216919  0.17735918     0.12200
H663        H  0.41940419  0.57226127  0.19169924     0.12700
H664        H  0.42586155  0.60954604  0.31649701     0.14700
C665        C  0.16942781  0.65952460  0.23706704    -0.05300
C666        C  0.17084503  0.63608190  0.20605439    -0.05300
C667        C  0.14811096  0.61191670  0.20814644    -0.23400
C668        C  0.12373187  0.61017510  0.24193948     0.18600
C669        C  0.12192335  0.63361571  0.27337958     0.16000
C670        C  0.14456536  0.65852402  0.27032049    -0.18500
C671        C  0.09782843  0.63117929  0.30786740    -0.20300
C672        C  0.07581104  0.60583955  0.31114144    -0.12900
C673        C  0.07727043  0.58278309  0.27967605     0.03800
C674        C  0.10132161  0.58512652  0.24509376    -0.25000
H675        H  0.18980538  0.63625544  0.18029169     0.08900
H676        H  0.14990276  0.59413011  0.18384430     0.12500
H677        H  0.14349252  0.67606702  0.29490100     0.12400
H678        H  0.09612425  0.64868358  0.33251125     0.12200
H679        H  0.05745709  0.60430052  0.33809318     0.12700
H680        H  0.10249263  0.56740992  0.22070920     0.14700
C681        C  0.07991690  0.91531025  0.97077369    -0.05300
C682        C  0.09957045  0.91188041  0.43194521    -0.05300
C683        C  0.12262830  0.88853880  0.43399195    -0.23400
C684        C  0.12683026  0.86881079  0.97497176     0.18800
C685        C  0.10684548  0.87220901  0.01395936     0.16000
C686        C  0.08320503  0.89502623  0.01142258    -0.18500
C687        C  0.11140251  0.85349192  0.05503815    -0.20300
C688        C  0.13583177  0.83215417  0.05766403    -0.12900
C689        C  0.15549308  0.82817251  0.01903668     0.03800
C690        C  0.15057817  0.84613202  0.97757455    -0.25000
H691        H  0.09754143  0.92771595  0.40054450     0.08900
H692        H  0.13789156  0.88649029  0.40391611     0.12500
H693        H  0.06785640  0.89780986  0.04118148     0.12400
H694        H  0.09650713  0.85601489  0.08532411     0.12200
H695        H  0.13941181  0.81870351  0.08993497     0.12700
H696        H  0.16603897  0.84366307  0.94780623     0.14700
C697        C  0.42423933  0.91070014  0.98745737    -0.05300
C698        C  0.41821662  0.89723961  0.44843468    -0.05300
C699        C  0.39577008  0.87256031  0.45076164    -0.23400
C700        C  0.37771402  0.86228379  0.99184496     0.18800
C701        C  0.38320210  0.87547088  0.03092667     0.16000
C702        C  0.40684736  0.89896612  0.02868154    -0.18500
C703        C  0.36434228  0.86575848  0.07122654    -0.20300
C704        C  0.33975272  0.84416142  0.07246579    -0.12900
C705        C  0.33412730  0.83088290  0.03389308     0.03800
C706        C  0.35357080  0.83950801  0.99379238    -0.25000
H707        H  0.43148848  0.90578020  0.41648146     0.08900
H708        H  0.39237469  0.86229685  0.42062532     0.12500
H709        H  0.41110835  0.90910782  0.05857138     0.12400
H710        H  0.36810225  0.87565467  0.10149542     0.12200
H711        H  0.32492740  0.83794717  0.10357607     0.12700
H712        H  0.34901921  0.82988151  0.96369040     0.14700
C713        C  0.42301430  0.58826386  0.47235535    -0.05300
C714        C  0.40616341  0.58933920  0.43697009    -0.05300
C715        C  0.38219590  0.61118170  0.43456484    -0.23400
C716        C  0.37460540  0.63229120  0.46765040     0.18800
C717        C  0.39190281  0.63226079  0.50281547     0.16000
C718        C  0.41638505  0.60985602  0.00333312    -0.18500
C719        C  0.38403886  0.65361170  0.53571314    -0.20300
C720        C  0.35866816  0.67376480  0.53465892    -0.12900
C721        C  0.34072031  0.67285964  0.50072704     0.03800
C722        C  0.34941546  0.65262034  0.46671931    -0.25000
H723        H  0.41131366  0.57269879  0.41159506     0.08900
H724        H  0.36919399  0.61100990  0.40733657     0.12500
H725        H  0.42949870  0.60876769  0.03061985     0.12400
H726        H  0.39761865  0.65335792  0.06190072     0.12200
H727        H  0.35261613  0.68923578  0.56111317     0.12700
H728        H  0.33612151  0.65193169  0.43990354     0.14700
C729        C  0.15776092  0.67395490  0.48318735    -0.05300
C730        C  0.13241441  0.67715660  0.51424034    -0.05300
C731        C  0.10648410  0.65827935  0.51359808    -0.23400
C732        C  0.10529195  0.63619061  0.48148586     0.18800
C733        C  0.13014766  0.63418434  0.44860254     0.16000
C734        C  0.15622881  0.65287081  0.44983917    -0.18500
C735        C  0.12883579  0.61263313  0.41593096    -0.20300
C736        C  0.10383590  0.59177850  0.41737393    -0.12900
C737        C  0.07967955  0.59212728  0.45137051     0.03800
C738        C  0.08016200  0.61514596  0.48264824    -0.25000
H739        H  0.13299747  0.69333444  0.54009433     0.08900
H740        H  0.08758747  0.66039479  0.53882871     0.12500
H741        H  0.17549424  0.65059969  0.42526855     0.12400
H742        H  0.14748982  0.61111602  0.39008172     0.12200
H743        H  0.10375625  0.57427074  0.39294764     0.12700
H744        H  0.06159459  0.61545471  0.50899867     0.14700
N745        N  0.04742316  0.00341406  0.46104848    -0.36700
N746        N  0.50071456  0.55498812  0.47150914    -0.57300
N747        N  0.45553434  0.50061426  0.47882780    -0.36700
N748        N  0.00219484  0.94927829  0.47081744    -0.57300
C749        C  0.06359758  0.53085908  0.46635145     0.26900
C750        C  0.06372603  0.97538037  0.47103945     0.26900
C751        C  0.43831167  0.52768103  0.48686274     0.26900
C752        C  0.43823692  0.97185522  0.48993302     0.26900
C753        C  0.02607946  0.57580309  0.45409351     0.35500
C754        C  0.47678687  0.57441948  0.46519897     0.35500
C755        C  0.02674032  0.93024387  0.46470389     0.35500
C756        C  0.47725084  0.92890575  0.47391372     0.35500
C757        C  0.09047695  0.52015354  0.47953424    -0.22000
C758        C  0.09062946  0.98537744  0.48219431    -0.22000
C759        C  0.40964992  0.51609759  0.50335614    -0.22000
C760        C  0.40953372  0.98103861  0.50493253    -0.22000
C761        C  0.01756628  0.60882434  0.44025983    -0.23100
C762        C  0.48573655  0.60776294  0.44805002    -0.23100
C763        C  0.01893795  0.89753877  0.45839335    -0.23100
C764        C  0.48695205  0.89708595  0.46417495    -0.23000
C765        C  0.05561685  0.56558145  0.45697866    -0.18400
C766        C  0.05582646  0.94113240  0.46812931    -0.18400
C767        C  0.44709763  0.93803917  0.48358546    -0.18400
C768        C  0.44694365  0.56273423  0.47574978    -0.18400
H769        H  0.10834381  0.53594265  0.48616385     0.14500
H770        H  0.10861813  0.96913479  0.49129789     0.14500
H771        H  0.39054971  0.53137783  0.51212181     0.14500
H772        H  0.39013691  0.96457393  0.51508124     0.14500
H773        H  0.03180439  0.63108151  0.42837191     0.12800
H774        H  0.47179196  0.62920750  0.43949983     0.12800
H775        H  0.03352518  0.87631175  0.45356237     0.12800
H776        H  0.47361989  0.87508287  0.46115280     0.12800
H777        H  0.02799153  0.00400549  0.44669970     0.26100
H778        H  0.47680880  0.50221405  0.46139030     0.26000
N779        N  0.45374157  0.49872029  0.77139119    -0.36700
N780        N  0.99677143  0.94343043  0.78243992    -0.57300
N781        N  0.04300562  0.99507886  0.78318895    -0.36700
N782        N  0.49962777  0.55103948  0.76996924    -0.57300
C783        C  0.43523918  0.97095427  0.78065061     0.26900
C784        C  0.43694465  0.52670926  0.77535557     0.26900
C785        C  0.05828781  0.96615488  0.79264280     0.26900
C786        C  0.05976942  0.52184115  0.78964963     0.26900
C787        C  0.47328889  0.92553861  0.77540091     0.35500
C788        C  0.02046013  0.92279470  0.78195939     0.35500
C789        C  0.47717416  0.57146204  0.75884419     0.35500
C790        C  0.02414747  0.56888884  0.77375412     0.35500
C791        C  0.40629428  0.98164476  0.79024557    -0.22000
C792        C  0.40742852  0.51669117  0.78722336    -0.22000
C793        C  0.08531676  0.97471300  0.80483545    -0.22000
C794        C  0.08619352  0.50974429  0.80313498    -0.22000
C795        C  0.48221292  0.89234970  0.77162002    -0.23100
C796        C  0.01201228  0.89000560  0.77666954    -0.23100
C797        C  0.48784584  0.60430359  0.74253043    -0.23100
C798        C  0.01765261  0.60275149  0.76028455    -0.23000
C799        C  0.44358341  0.93664560  0.77715965    -0.18400
C800        C  0.44703292  0.56117517  0.76424176    -0.18400
C801        C  0.05268652  0.55701590  0.78135508    -0.18400
C802        C  0.04934863  0.93243099  0.78832731    -0.18400
H803        H  0.38620127  0.96614960  0.79764892     0.14500
H804        H  0.38849525  0.53302402  0.79210522     0.14500
H805        H  0.10281900  0.95758723  0.81359540     0.14500
H806        H  0.10442382  0.52461161  0.81049394     0.14500
H807        H  0.46856769  0.87054966  0.76874435     0.12800
H808        H  0.02572341  0.86763802  0.77580871     0.12800
H809        H  0.47532536  0.62629731  0.73103685     0.12800
H810        H  0.03278228  0.62456265  0.75311656     0.12800
H811        H  0.47580752  0.49901415  0.75732904     0.26100
H812        H  0.02383892  0.99677162  0.76840576     0.26000
O813        O  0.19721553  0.81050838  0.55379381    -0.81000
O814        O  0.30581490  0.71341485  0.52720160    -0.65700
O815        O  0.24837120  0.78220742  0.00878926    -1.12300
C816        C  0.18687594  0.69042082  0.98755852     1.05900
O817        O  0.29532614  0.68461634  0.97411138    -0.78900
O818        O  0.25683950  0.71393020  0.92276621    -0.66500
Ni819      Ni  0.23996484  0.81483393  0.54955220     1.34900
C820        C  0.24392978  0.74168959  0.91232450     0.84600
O821        O  0.30773071  0.78175121  0.51948299    -0.79400
O822        O  0.28180906  0.82390649  0.54844159    -0.89700
C823        C  0.31280817  0.69163718  0.00087584     0.84200
O824        O  0.23821945  0.78356813  0.60347889    -0.67900
O825        O  0.21106544  0.67603062  0.97510600    -0.87200
C826        C  0.25190331  0.75615572  0.61310390     0.85000
C827        C  0.30618700  0.81066410  0.53384375     1.06600
H828        H  0.23912421  0.70434157  0.54650118     0.38400
O829        O  0.24527447  0.71660373  0.51694110    -1.09900
O830        O  0.22728736  0.75666369  0.94057863    -0.66500
Ni831      Ni  0.21711151  0.75099304  0.00504415     1.26300
O832        O  0.26843935  0.74193755  0.58391098    -0.66700
O833        O  0.18597680  0.71885726  0.00287404    -0.79000
C834        C  0.18204717  0.80771835  0.52233751     0.84400
O835        O  0.18974592  0.78695484  0.99454281    -0.66200
Ni836      Ni  0.25284068  0.68301157  0.97687078     1.27400
Ni837      Ni  0.27706310  0.74833268  0.51902119     1.26100
H838        H  0.25443333  0.79515986  0.97959985     0.39000
O839        O  0.19467802  0.80470648  0.80103423    -0.81000
O840        O  0.30746158  0.71619288  0.78548853    -0.65700
O841        O  0.24810222  0.78122504  0.75906520    -1.12300
C842        C  0.19534497  0.68196344  0.73751360     1.05900
O843        O  0.30345410  0.69309049  0.72456479    -0.78900
O844        O  0.26247212  0.71341764  0.67105266    -0.66500
Ni845      Ni  0.23638856  0.81381868  0.79915756     1.34900
C846        C  0.24827077  0.74026924  0.66048684     0.84600
O847        O  0.30633747  0.78447917  0.77903669    -0.79400
O848        O  0.27696889  0.82648129  0.80132646    -0.89700
C849        C  0.31696665  0.69621866  0.75773679     0.84200
O850        O  0.23481589  0.78427064  0.85422671    -0.67900
O851        O  0.22100623  0.67022282  0.72617394    -0.87200
C852        C  0.24843487  0.75712963  0.86509962     0.85000
C853        C  0.30241118  0.81360779  0.79226890     1.06600
H854        H  0.24297019  0.70281910  0.79549535     0.38400
O855        O  0.24962230  0.71597360  0.76666156    -1.09900
O856        O  0.23087615  0.75420634  0.68887230    -0.66500
Ni857      Ni  0.21924238  0.74734313  0.75297867     1.26300
O858        O  0.26578408  0.74264275  0.83723391    -0.66700
O859        O  0.19117526  0.71167677  0.74915994    -0.79000
C860        C  0.18081874  0.80106538  0.76851746     0.84400
O861        O  0.18978595  0.78068511  0.74103783    -0.66200
Ni862      Ni  0.26164607  0.68371239  0.72643799     1.27400
Ni863      Ni  0.27826940  0.74962010  0.77335957     1.26100
H864        H  0.25480472  0.79411908  0.73006868     0.39000
C865        C  0.07155779  0.90506875  0.79176777    -0.05300
C866        C  0.07638998  0.88874608  0.83394588    -0.05300
C867        C  0.09761444  0.86337970  0.83756134    -0.23400
C868        C  0.11408357  0.85384125  0.79896699     0.18800
C869        C  0.10837091  0.86903218  0.75620938     0.16000
C870        C  0.08718149  0.89479197  0.75288752    -0.18500
C871        C  0.12435333  0.85857598  0.71771246    -0.20300
C872        C  0.14680060  0.83451444  0.72159307    -0.12900
C873        C  0.15372742  0.82094880  0.76397617     0.03800
C874        C  0.13673062  0.83005400  0.80251148    -0.25000
H875        H  0.06380185  0.89589373  0.86399606     0.08900
H876        H  0.10129371  0.85136088  0.87048760     0.12500
H877        H  0.08292372  0.90703855  0.72030888     0.12400
H878        H  0.12004988  0.86966438  0.68467295     0.12200
H879        H  0.15976378  0.82790009  0.69150593     0.12700
H880        H  0.14180805  0.81942164  0.83534717     0.14700
C881        C  0.42002784  0.91109486  0.77424851    -0.05300
C882        C  0.41882199  0.89831417  0.73369023    -0.05300
C883        C  0.39662500  0.87483667  0.72994659    -0.23400
C884        C  0.37475573  0.86437956  0.76643433     0.18800
C885        C  0.37566942  0.87726965  0.80738748     0.16000
C886        C  0.39869614  0.89990775  0.81133478    -0.18500
C887        C  0.35305238  0.86804509  0.84323806    -0.20300
C888        C  0.32947477  0.84687433  0.83829412    -0.12900
C889        C  0.32848874  0.83384322  0.79788493     0.03800
C890        C  0.35148520  0.84212000  0.76227382    -0.25000
H891        H  0.43513811  0.90665229  0.70483679     0.08900
H892        H  0.39620392  0.86542432  0.69824805     0.12500
H893        H  0.39960647  0.90964992  0.84272490     0.12400
H894        H  0.35311867  0.87796959  0.87465123     0.12200
H895        H  0.31184570  0.84073173  0.86603072     0.12700
H896        H  0.35052686  0.83247976  0.73082560     0.14700
C897        C  0.34424703  0.67644844  0.76334491    -0.05300
C898        C  0.35850768  0.67687754  0.80146282    -0.05300
C899        C  0.38256689  0.65563516  0.80846712    -0.23400
C900        C  0.39264584  0.63341417  0.77764561     0.18800
C901        C  0.37897923  0.63358480  0.73860655     0.16000
C902        C  0.35511391  0.65514556  0.73163936    -0.18500
C903        C  0.38881087  0.61145672  0.70765212    -0.20300
C904        C  0.41137432  0.58856206  0.71589149    -0.12900
C905        C  0.42460164  0.58755357  0.75498615     0.03800
C906        C  0.41556758  0.61040299  0.78555858    -0.25000
H907        H  0.35064154  0.69305122  0.82642345     0.08900
H908        H  0.39287448  0.65608102  0.83841138     0.12500
H909        H  0.34446823  0.65454853  0.70200986     0.12400
H910        H  0.37864725  0.61137834  0.67750201     0.12200
H911        H  0.41826988  0.57111640  0.69208667     0.12700
H912        H  0.42579886  0.60953999  0.81581029     0.14700
C913        C  0.16950022  0.65901373  0.73779438    -0.05300
C914        C  0.17095299  0.63546387  0.70692956    -0.05300
C915        C  0.14815361  0.61142400  0.70890639    -0.23400
C916        C  0.12363907  0.60991293  0.74242163     0.18600
C917        C  0.12184566  0.63329682  0.77393109     0.16000
C918        C  0.14460469  0.65807039  0.77103216    -0.18500
C919        C  0.09758937  0.63099815  0.80818537    -0.20300
C920        C  0.07535932  0.60594069  0.81101587    -0.12900
C921        C  0.07682980  0.58299392  0.77940843     0.03800
C922        C  0.10106084  0.58515178  0.74516512    -0.25000
H923        H  0.18995293  0.63552986  0.68125742     0.08900
H924        H  0.14995112  0.59361666  0.68463042     0.12500
H925        H  0.14352746  0.67564364  0.79557465     0.12400
H926        H  0.09590359  0.64840968  0.83294251     0.12200
H927        H  0.05689013  0.60448233  0.83777773     0.12700
H928        H  0.10225653  0.56747296  0.72072973     0.14700
C929        C  0.07942996  0.91512436  0.47024871    -0.05300
C930        C  0.10024542  0.91243045  0.93252349    -0.05300
C931        C  0.12329599  0.88904811  0.93442302    -0.23400
C932        C  0.12636815  0.86872813  0.47474073     0.18800
C933        C  0.10656915  0.87248987  0.51378738     0.16000
C934        C  0.08289904  0.89525394  0.51111579    -0.18500
C935        C  0.11134725  0.85418736  0.55501596    -0.20300
C936        C  0.13578752  0.83286731  0.55769335    -0.12900
C937        C  0.15523962  0.82850217  0.51899924     0.03800
C938        C  0.15013493  0.84610154  0.47743598    -0.25000
H939        H  0.09833574  0.92852541  0.90126575     0.08900
H940        H  0.13869551  0.88727701  0.90439864     0.12500
H941        H  0.06769510  0.89834331  0.54091008     0.12400
H942        H  0.09660282  0.85699404  0.58534762     0.12200
H943        H  0.13951641  0.81969831  0.59004479     0.12700
H944        H  0.16544180  0.84335436  0.44760655     0.14700
C945        C  0.42354975  0.91093032  0.48688861    -0.05300
C946        C  0.41854767  0.89742347  0.94890233    -0.05300
C947        C  0.39587516  0.87303769  0.95119278    -0.23400
C948        C  0.37743721  0.86197009  0.49130573     0.18800
C949        C  0.38256810  0.87558852  0.53025642     0.16000
C950        C  0.40601212  0.89932540  0.52801283    -0.18500
C951        C  0.36357081  0.86604300  0.57044295    -0.20300
C952        C  0.33913925  0.84424665  0.57167064    -0.12900
C953        C  0.33380369  0.83061269  0.53321837     0.03800
C954        C  0.35344465  0.83897648  0.49326310    -0.25000
H955        H  0.43165856  0.90613763  0.91686980     0.08900
H956        H  0.39216750  0.86313488  0.92094666     0.12500
H957        H  0.41003861  0.90970284  0.55785024     0.12400
H958        H  0.36707364  0.87625950  0.60060513     0.12200
H959        H  0.32416095  0.83821615  0.60266119     0.12700
H960        H  0.34912045  0.82905158  0.46324799     0.14700
C961        C  0.42306471  0.58811241  0.97050060    -0.05300
C962        C  0.40610353  0.58948778  0.93520700    -0.05300
C963        C  0.38225363  0.61155591  0.93308096    -0.23400
C964        C  0.37488374  0.63255009  0.96638360     0.18800
C965        C  0.39221424  0.63207587  0.00156597     0.16000
C966        C  0.41619357  0.61022918  0.50489433    -0.18500
C967        C  0.38453243  0.65321685  0.03476937    -0.20300
C968        C  0.35932329  0.67365847  0.03395832    -0.12900
C969        C  0.34137827  0.67329032  0.99992962     0.03800
C970        C  0.34988768  0.65321482  0.96564968    -0.25000
H971        H  0.41111761  0.57298711  0.90963672     0.08900
H972        H  0.36918992  0.61168122  0.90587494     0.12500
H973        H  0.42924532  0.60941476  0.53222369     0.12400
H974        H  0.39710478  0.65413578  0.56279870     0.12200
H975        H  0.35339836  0.68894520  0.06064849     0.12700
H976        H  0.33657717  0.65288250  0.93878649     0.14700
C977        C  0.15859535  0.67289730  0.98410301    -0.05300
C978        C  0.13294602  0.67685746  0.01423628    -0.05300
C979        C  0.10687307  0.65835686  0.01311093    -0.23400
C980        C  0.10581166  0.63593906  0.98134457     0.18800
C981        C  0.13104557  0.63306551  0.94944651     0.16000
C982        C  0.15728971  0.65127076  0.95128993    -0.18500
C983        C  0.12986823  0.61128551  0.91700349    -0.20300
C984        C  0.10457674  0.59107350  0.91772237    -0.12900
C985        C  0.08002805  0.59215910  0.95089474     0.03800
C986        C  0.08040709  0.61544638  0.98187441    -0.25000
H987        H  0.13334259  0.69345617  0.03965893     0.08900
H988        H  0.08770493  0.66113308  0.03760094     0.12500
H989        H  0.17679143  0.64838748  0.92741395     0.12400
H990        H  0.14882220  0.60910704  0.89188997     0.12200
H991        H  0.10459739  0.57335586  0.89353301     0.12700
H992        H  0.06154778  0.61633337  0.00759910     0.14700
N993        N  0.54646637  0.50372776  0.96345264    -0.36700
N994        N  0.00215195  0.05534646  0.96553344    -0.57300
N995        N  0.95722264  0.00098918  0.97219329    -0.36700
N996        N  0.50145154  0.44911153  0.97642731    -0.57300
C997        C  0.56248655  0.03149882  0.96874711     0.26900
C998        C  0.56294922  0.47579740  0.97311239     0.26900
C999        C  0.93982329  0.02808486  0.97948724     0.26900
C1000       C  0.93977086  0.47227169  0.98275853     0.26900
C1001       C  0.52487632  0.07607480  0.95579430     0.35500
C1002       C  0.97832967  0.07485249  0.95871120     0.35500
C1003       C  0.52602650  0.43062307  0.96735619     0.35500
C1004       C  0.97895531  0.42878361  0.97014978     0.35500
C1005       C  0.58937599  0.02098912  0.98208104    -0.22000
C1006       C  0.58970464  0.48587166  0.98467456    -0.22000
C1007       C  0.91101151  0.01648207  0.99483372    -0.22000
C1008       C  0.91087275  0.48155315  0.99636302    -0.22000
C1009       C  0.51617184  0.10878507  0.94082775    -0.23100
C1010       C  0.98746868  0.10814948  0.94164886    -0.23100
C1011       C  0.51810249  0.39832297  0.95967159    -0.23100
C1012       C  0.98868281  0.39632666  0.96340451    -0.23000
C1013       C  0.55446616  0.06616166  0.95873362    -0.18400
C1014       C  0.55533902  0.44164603  0.96923828    -0.18400
C1015       C  0.94877844  0.43830846  0.97753105    -0.18400
C1016       C  0.94843412  0.06320621  0.96880684    -0.18400
H1017       H  0.60710868  0.03692347  0.98882602     0.14500
H1018       H  0.60775185  0.46969281  0.99369569     0.14500
H1019       H  0.89175179  0.03168332  0.00296956     0.14500
H1020       H  0.89133310  0.46523240  0.00557070     0.14500
H1021       H  0.53027451  0.13101049  0.92802813     0.12800
H1022       H  0.97364466  0.12963125  0.93275469     0.12800
H1023       H  0.53272746  0.37763271  0.95219551     0.12800
H1024       H  0.97538346  0.37401719  0.96152277     0.12800
H1025       H  0.52713979  0.50420025  0.94879799     0.26100
H1026       H  0.97878435  0.00247487  0.95584060     0.26000
N1027       N  0.95407408  0.99783310  0.27352570    -0.36700
N1028       N  0.49687166  0.44518048  0.27781724    -0.57300
N1029       N  0.54379116  0.49699923  0.27279400    -0.36700
N1030       N  0.99949049  0.04917370  0.27995404    -0.57300
C1031       C  0.93553921  0.47036670  0.27800107     0.26900
C1032       C  0.93717259  0.02593295  0.27536979     0.26900
C1033       C  0.55873387  0.46812683  0.28414996     0.26900
C1034       C  0.56057831  0.02399480  0.27865256     0.26900
C1035       C  0.97339237  0.42430791  0.27660619     0.35500
C1036       C  0.52068026  0.42469741  0.27518383     0.35500
C1037       C  0.97738647  0.07041825  0.26935079     0.35500
C1038       C  0.52516398  0.07056725  0.26111126     0.35500
C1039       C  0.90645404  0.48135396  0.28229626    -0.22000
C1040       C  0.90748348  0.01622558  0.28079302    -0.22000
C1041       C  0.58553217  0.47693408  0.29686651    -0.22000
C1042       C  0.58663496  0.01208971  0.29356535    -0.22000
C1043       C  0.98214876  0.39100187  0.27331258    -0.23100
C1044       C  0.51203481  0.39210412  0.26947099    -0.23100
C1045       C  0.98817108  0.10377071  0.25860795    -0.23100
C1046       C  0.51855417  0.10391997  0.24510383    -0.23000
C1047       C  0.94399229  0.43591672  0.27579901    -0.18400
C1048       C  0.94757467  0.06038188  0.26886005    -0.18400
C1049       C  0.55378767  0.05910023  0.26853376    -0.18400
C1050       C  0.54977558  0.43422396  0.28073131    -0.18400
H1051       H  0.88638674  0.46608579  0.28526255     0.14500
H1052       H  0.88844880  0.03266105  0.28267707     0.14500
H1053       H  0.60274058  0.45990650  0.30706958     0.14500
H1054       H  0.60475474  0.02713012  0.30092115     0.14500
H1055       H  0.96859963  0.36948615  0.26910968     0.12800
H1056       H  0.52577674  0.36986831  0.26721666     0.12800
H1057       H  0.97601926  0.12645571  0.24860085     0.12800
H1058       H  0.53379712  0.12546269  0.23468112     0.12800
H1059       H  0.97677514  0.99802495  0.26437286     0.26100
H1060       H  0.52490753  0.49841866  0.25715176     0.26000
O1061       O  0.69839929  0.31246846  0.04808130    -0.81000
O1062       O  0.80721441  0.21423222  0.02193149    -0.65700
O1063       O  0.74868527  0.28271746  0.50331083    -1.12300
C1064       C  0.68564902  0.19213310  0.48488470     1.05900
O1065       O  0.79366493  0.18105048  0.47383150    -0.78900
O1066       O  0.75740994  0.21389627  0.42032671    -0.66500
Ni1067     Ni  0.74123335  0.31559100  0.04430388     1.34900
C1068       C  0.74382265  0.24109145  0.40922997     0.84600
O1069       O  0.80895849  0.28283291  0.01205361    -0.79400
O1070       O  0.78313687  0.32392415  0.04353269    -0.89700
C1071       C  0.81225161  0.19030780  0.49762907     0.84200
O1072       O  0.73897483  0.28409732  0.09812609    -0.67900
O1073       O  0.70958541  0.17808769  0.47057802    -0.87200
C1074       C  0.75360961  0.25744441  0.10799429     0.85000
C1075       C  0.80745218  0.31139985  0.02733014     1.06600
H1076       H  0.74031362  0.20527387  0.04381317     0.38400
O1077       O  0.74612117  0.21699253  0.01385309    -1.09900
O1078       O  0.72642975  0.25569713  0.43708539    -0.66500
Ni1079     Ni  0.71704192  0.25155768  0.50173357     1.26300
O1080       O  0.77070347  0.24372470  0.07888112    -0.66700
O1081       O  0.68535272  0.21969770  0.50203917    -0.79000
C1082       C  0.68297348  0.30856467  0.01726437     0.84400
O1083       O  0.68984119  0.28761449  0.49066186    -0.66200
Ni1084     Ni  0.75137912  0.18272267  0.47434257     1.27400
Ni1085     Ni  0.77818920  0.24901180  0.01384471     1.26100
H1086       H  0.75431162  0.29534560  0.47379746     0.39000
O1087       O  0.69492360  0.30428303  0.29714748    -0.81000
O1088       O  0.80782280  0.21608134  0.28261545    -0.65700
O1089       O  0.74880520  0.28148583  0.25555209    -1.12300
C1090       C  0.69693544  0.18305900  0.22936223     1.05900
O1091       O  0.80497944  0.19329219  0.22110631    -0.78900
O1092       O  0.76476916  0.21507120  0.16604833    -0.66500
Ni1093     Ni  0.73655562  0.31357321  0.29614187     1.34900
C1094       C  0.75023646  0.24169010  0.15545756     0.84600
O1095       O  0.80664568  0.28446772  0.27704328    -0.79400
O1096       O  0.77701938  0.32638701  0.29904197    -0.89700
C1097       C  0.81763075  0.19589130  0.25529243     0.84200
O1098       O  0.73479703  0.28363896  0.35099118    -0.67900
O1099       O  0.72274526  0.17147198  0.21868327    -0.87200
C1100       C  0.74838676  0.25646393  0.36186435     0.85000
C1101       C  0.80253688  0.31359886  0.29024421     1.06600
H1102       H  0.74349234  0.20281993  0.29028417     0.38400
O1103       O  0.75045026  0.21628289  0.26177912    -1.09900
O1104       O  0.73252392  0.25534396  0.18379731    -0.66500
Ni1105     Ni  0.72017920  0.24788636  0.24778778     1.26300
O1106       O  0.76578089  0.24205584  0.33394543    -0.66700
O1107       O  0.69244619  0.21243329  0.24199195    -0.79000
C1108       C  0.68145768  0.30157612  0.26391899     0.84400
O1109       O  0.69071197  0.28156253  0.23597211    -0.66200
Ni1110     Ni  0.76319379  0.18456791  0.22097585     1.27400
Ni1111     Ni  0.77882560  0.24970879  0.27010217     1.26100
H1112       H  0.75582129  0.29468626  0.22687895     0.39000
C1113       C  0.57200983  0.40676312  0.28478870    -0.05300
C1114       C  0.57797457  0.39225857  0.32724610    -0.05300
C1115       C  0.59956118  0.36732830  0.33148085    -0.23400
C1116       C  0.61534509  0.35633445  0.29327894     0.18800
C1117       C  0.60865739  0.36974586  0.25036682     0.16000
C1118       C  0.58704922  0.39507866  0.24637189    -0.18500
C1119       C  0.62410449  0.35797004  0.21235116    -0.20300
C1120       C  0.64676604  0.33416529  0.21674356    -0.12900
C1121       C  0.65450596  0.32205301  0.25916085     0.03800
C1122       C  0.63819985  0.33276615  0.29732698    -0.25000
H1123       H  0.56609334  0.40061509  0.35705248     0.08900
H1124       H  0.60408706  0.35681591  0.36459701     0.12500
H1125       H  0.58208939  0.40598009  0.21359545     0.12400
H1126       H  0.61913240  0.36774307  0.17919560     0.12200
H1127       H  0.65912546  0.32643672  0.18687175     0.12700
H1128       H  0.64383352  0.32340069  0.33026053     0.14700
C1129       C  0.92051265  0.41045838  0.27250162    -0.05300
C1130       C  0.91929221  0.39782008  0.23188399    -0.05300
C1131       C  0.89682397  0.37473639  0.22795870    -0.23400
C1132       C  0.87485065  0.36443574  0.26439538     0.18800
C1133       C  0.87582939  0.37721116  0.30540116     0.16000
C1134       C  0.89897572  0.39962355  0.30942635    -0.18500
C1135       C  0.85318630  0.36806726  0.34124627    -0.20300
C1136       C  0.82955235  0.34697469  0.33629857    -0.12900
C1137       C  0.82852598  0.33399294  0.29586658     0.03800
C1138       C  0.85147625  0.34234778  0.26019021    -0.25000
H1139       H  0.93572951  0.40602818  0.20314007     0.08900
H1140       H  0.89631899  0.36544161  0.19620599     0.12500
H1141       H  0.89983310  0.40950486  0.34073396     0.12400
H1142       H  0.85334053  0.37789380  0.37271431     0.12200
H1143       H  0.81195407  0.34079564  0.36406983     0.12700
H1144       H  0.85046729  0.33277676  0.22871121     0.14700
C1145       C  0.84421339  0.17521735  0.26296383    -0.05300
C1146       C  0.85585324  0.17350710  0.30370757    -0.05300
C1147       C  0.87927960  0.15176850  0.31252956    -0.23400
C1148       C  0.89154873  0.13128093  0.28080013     0.18800
C1149       C  0.88056764  0.13350096  0.23923830     0.16000
C1150       C  0.85704243  0.15533506  0.23065325    -0.18500
C1151       C  0.89290085  0.11333112  0.20719883    -0.20300
C1152       C  0.91533274  0.09048875  0.21664726    -0.12900
C1153       C  0.92579150  0.08734464  0.25823863     0.03800
C1154       C  0.91415216  0.10813363  0.29011541    -0.25000
H1155       H  0.84640134  0.18842413  0.32927845     0.08900
H1156       H  0.88754654  0.15069158  0.34438214     0.12500
H1157       H  0.84839778  0.15634919  0.19905910     0.12400
H1158       H  0.88487257  0.11481901  0.17510523     0.12200
H1159       H  0.92416775  0.07458957  0.19184384     0.12700
H1160       H  0.92216841  0.10561126  0.32231693     0.14700
C1161       C  0.67127315  0.16021852  0.22800953    -0.05300
C1162       C  0.67400268  0.13526774  0.19892987    -0.05300
C1163       C  0.65131589  0.11115638  0.20030575    -0.23400
C1164       C  0.62560078  0.11103613  0.23141475     0.18600
C1165       C  0.62245301  0.13604417  0.26076985     0.16000
C1166       C  0.64509874  0.16081186  0.25841202    -0.18500
C1167       C  0.59702402  0.13529097  0.29269166    -0.20300
C1168       C  0.57500579  0.11005338  0.29552511    -0.12900
C1169       C  0.57779111  0.08535891  0.26615875     0.03800
C1170       C  0.60318052  0.08605177  0.23406385    -0.25000
H1171       H  0.69394399  0.13417716  0.17529931     0.08900
H1172       H  0.65415926  0.09216509  0.17762393     0.12500
H1173       H  0.64291687  0.17954559  0.28149526     0.12400
H1174       H  0.59427967  0.15402400  0.31573109     0.12200
H1175       H  0.55564482  0.10980249  0.32060112     0.12700
H1176       H  0.60543141  0.06705572  0.21133273     0.14700
C1177       C  0.57937507  0.41600219  0.96928448    -0.05300
C1178       C  0.59973622  0.41512868  0.43211335    -0.05300
C1179       C  0.62350871  0.39266828  0.43304690    -0.23400
C1180       C  0.62781787  0.37144345  0.97180026     0.18800
C1181       C  0.60584004  0.37069633  0.00962269     0.16000
C1182       C  0.58151818  0.39259569  0.00784271    -0.18500
C1183       C  0.60908840  0.34885413  0.04906317    -0.20300
C1184       C  0.63413955  0.32848055  0.05137113    -0.12900
C1185       C  0.65583247  0.32868246  0.01386082     0.03800
C1186       C  0.65236116  0.34985156  0.97387208    -0.25000
H1187       H  0.59809928  0.43271475  0.40195132     0.08900
H1188       H  0.63971525  0.39310738  0.40337215     0.12500
H1189       H  0.56478659  0.39236735  0.03688195     0.12400
H1190       H  0.59260519  0.34812659  0.07845993     0.12200
H1191       H  0.63659868  0.31245828  0.08248703     0.12700
H1192       H  0.66936165  0.35051227  0.94508112     0.14700
C1193       C  0.92527921  0.41121449  0.98060374    -0.05300
C1194       C  0.92040807  0.39643395  0.44117482    -0.05300
C1195       C  0.89809816  0.37150676  0.44371361    -0.23400
C1196       C  0.87915968  0.36227694  0.98489624     0.18800
C1197       C  0.88334038  0.37723450  0.02327698     0.16000
C1198       C  0.90682262  0.40080845  0.02119880    -0.18500
C1199       C  0.86345378  0.36911279  0.06279198    -0.20300
C1200       C  0.83924564  0.34706463  0.06406480    -0.12900
C1201       C  0.83491122  0.33178484  0.02638642     0.03800
C1202       C  0.85528632  0.33904419  0.98694884    -0.25000
H1203       H  0.93411575  0.40436960  0.40941341     0.08900
H1204       H  0.89520495  0.36046219  0.41392621     0.12500
H1205       H  0.91016281  0.41205085  0.05071689     0.12400
H1206       H  0.86616288  0.38053387  0.09240113     0.12200
H1207       H  0.82366318  0.34206386  0.09456828     0.12700
H1208       H  0.85170378  0.32799705  0.95738986     0.14700
C1209       C  0.92387648  0.08815287  0.46699925    -0.05300
C1210       C  0.90502306  0.08655148  0.43453093    -0.05300
C1211       C  0.88015468  0.10706548  0.43355523    -0.23400
C1212       C  0.87382565  0.12996108  0.46472597     0.18800
C1213       C  0.89314395  0.13289808  0.49663366     0.16000
C1214       C  0.91821394  0.11144755  0.99757753    -0.18500
C1215       C  0.88656009  0.15622730  0.52743159    -0.20300
C1216       C  0.86071549  0.17569544  0.52730278    -0.12900
C1217       C  0.84092649  0.17204278  0.49652305     0.03800
C1218       C  0.84808170  0.14941224  0.46488212    -0.25000
H1219       H  0.90916398  0.06854580  0.41066205     0.08900
H1220       H  0.86556287  0.10457057  0.40886094     0.12500
H1221       H  0.93236462  0.11193249  0.02335993     0.12400
H1222       H  0.90033613  0.15682240  0.05424711     0.12200
H1223       H  0.85589539  0.19301054  0.55190012     0.12700
H1224       H  0.83334820  0.14645626  0.44050242     0.14700
C1225       C  0.65705362  0.17520327  0.48154406    -0.05300
C1226       C  0.63141513  0.18008487  0.51127163    -0.05300
C1227       C  0.60524718  0.16150136  0.51100517    -0.23400
C1228       C  0.60413062  0.13795717  0.48065716     0.18800
C1229       C  0.62921144  0.13447546  0.44874676     0.16000
C1230       C  0.65549602  0.15290346  0.44958052    -0.18500
C1231       C  0.62792578  0.11169417  0.41753217    -0.20300
C1232       C  0.60278819  0.09089967  0.41978152    -0.12900
C1233       C  0.57855658  0.09231003  0.45340855     0.03800
C1234       C  0.57890945  0.11681630  0.48281882    -0.25000
H1235       H  0.63191712  0.19733871  0.53590417     0.08900
H1236       H  0.58613067  0.16489826  0.53530721     0.12500
H1237       H  0.67492641  0.14938169  0.42587455     0.12400
H1238       H  0.64672584  0.10913839  0.39230283     0.12200
H1239       H  0.60270327  0.07253665  0.39643708     0.12700
H1240       H  0.56020005  0.11819436  0.50864637     0.14700
N1241       N  0.54611276  0.50338637  0.46450429    -0.36700
N1242       N  0.00185415  0.05509450  0.46657289    -0.57300
N1243       N  0.95695836  0.00078521  0.47195582    -0.36700
N1244       N  0.50079362  0.44908920  0.47632870    -0.57300
C1245       C  0.56234475  0.03095082  0.46985837     0.26900
C1246       C  0.56245634  0.47528972  0.47389963     0.26900
C1247       C  0.93967134  0.02768150  0.48067202     0.26900
C1248       C  0.93957400  0.47205072  0.48249728     0.26900
C1249       C  0.52480242  0.07577492  0.45788888     0.35500
C1250       C  0.97796907  0.07465310  0.46038995     0.35500
C1251       C  0.52530789  0.43043857  0.46759672     0.35500
C1252       C  0.97867096  0.42892236  0.46808240     0.35500
C1253       C  0.58926688  0.02018463  0.48281873    -0.22000
C1254       C  0.58936037  0.48511023  0.48523709    -0.22000
C1255       C  0.91104855  0.01587756  0.49703219    -0.22000
C1256       C  0.91085608  0.48109968  0.49758925    -0.22000
C1257       C  0.51616735  0.10859447  0.44330105    -0.23100
C1258       C  0.98699820  0.10812136  0.44415487    -0.23100
C1259       C  0.51730624  0.39818814  0.45983465    -0.23100
C1260       C  0.98846032  0.39663472  0.46059905    -0.23000
C1261       C  0.55440514  0.06569053  0.46032570    -0.18400
C1262       C  0.55461562  0.44121857  0.46992770    -0.18400
C1263       C  0.94850143  0.43826756  0.47609625    -0.18400
C1264       C  0.94811573  0.06285658  0.47023842    -0.18400
H1265       H  0.60714151  0.03594483  0.48948729     0.14500
H1266       H  0.60736493  0.46876198  0.49399495     0.14500
H1267       H  0.89192483  0.03093424  0.50643323     0.14500
H1268       H  0.89141045  0.46467714  0.50729535     0.14500
H1269       H  0.53031403  0.13077849  0.43047442     0.12800
H1270       H  0.97312091  0.12968926  0.43590137     0.12800
H1271       H  0.53186270  0.37737372  0.45265216     0.12800
H1272       H  0.97521760  0.37441728  0.45813733     0.12800
H1273       H  0.52669946  0.50409032  0.45005906     0.26100
H1274       H  0.97824373  0.00255190  0.45451902     0.26000
N1275       N  0.95398431  0.99765796  0.77277954    -0.36700
N1276       N  0.49681882  0.44507092  0.78004304    -0.57300
N1277       N  0.54348672  0.49735495  0.77393158    -0.36700
N1278       N  0.99923491  0.04919000  0.77896481    -0.57300
C1279       C  0.93553958  0.47005065  0.77776642     0.26900
C1280       C  0.93701202  0.02571081  0.77460946     0.26900
C1281       C  0.55858137  0.46871098  0.78582411     0.26900
C1282       C  0.56018057  0.02461927  0.77898827     0.26900
C1283       C  0.97352415  0.42413788  0.77637327     0.35500
C1284       C  0.52070077  0.42467246  0.77809407     0.35500
C1285       C  0.97717193  0.07031273  0.76786241     0.35500
C1286       C  0.52461019  0.07070292  0.76024179     0.35500
C1287       C  0.90641374  0.48089685  0.78236643    -0.22000
C1288       C  0.90733772  0.01586682  0.78059811    -0.22000
C1289       C  0.58533678  0.47795241  0.79827869    -0.22000
C1290       C  0.58629349  0.01310338  0.79407382    -0.22000
C1291       C  0.98235885  0.39084340  0.77318041    -0.23100
C1292       C  0.51217842  0.39180622  0.77335480    -0.23100
C1293       C  0.98796595  0.10364229  0.75661806    -0.23100
C1294       C  0.51788068  0.10379628  0.74327534    -0.23000
C1295       C  0.94408322  0.43561296  0.77574630    -0.18400
C1296       C  0.94734710  0.06020200  0.76769574    -0.18400
C1297       C  0.55323526  0.05961927  0.76815609    -0.18400
C1298       C  0.54979857  0.43460954  0.78312564    -0.18400
H1299       H  0.88638750  0.46547497  0.78586435     0.14500
H1300       H  0.88826396  0.03223735  0.78263892     0.14500
H1301       H  0.60262925  0.46117928  0.80878590     0.14500
H1302       H  0.60434427  0.02841553  0.80110287     0.14500
H1303       H  0.96882230  0.36923912  0.76923531     0.12800
H1304       H  0.52599771  0.36957267  0.77183245     0.12800
H1305       H  0.97583249  0.12623890  0.74617711     0.12800
H1306       H  0.53304204  0.12535060  0.73226382     0.12800
H1307       H  0.97666194  0.99791509  0.76325365     0.26100
H1308       H  0.52458749  0.49837815  0.75834209     0.26000
O1309       O  0.69857143  0.31315878  0.54802177    -0.81000
O1310       O  0.80694987  0.21416124  0.52149162    -0.65700
O1311       O  0.74883012  0.28264415  0.00345299    -1.12300
C1312       C  0.68620350  0.19134952  0.98511165     1.05900
O1313       O  0.79441068  0.18200401  0.97297863    -0.78900
O1314       O  0.75723718  0.21336047  0.92003682    -0.66500
Ni1315     Ni  0.74144770  0.31573876  0.54416771     1.34900
C1316       C  0.74400699  0.24084281  0.90907698     0.84600
O1317       O  0.80886508  0.28252260  0.51143488    -0.79400
O1318       O  0.78344119  0.32359533  0.54346150    -0.89700
C1319       C  0.81270556  0.19068540  0.99760662     0.84200
O1320       O  0.73893964  0.28420656  0.59795760    -0.67900
O1321       O  0.71019103  0.17700162  0.97169481    -0.87200
C1322       C  0.75351847  0.25752264  0.60785764     0.85000
C1323       C  0.80762396  0.31094584  0.52698530     1.06600
H1324       H  0.74000280  0.20530438  0.54391259     0.38400
O1325       O  0.74574006  0.21703200  0.51393909    -1.09900
O1326       O  0.72698226  0.25573377  0.93700013    -0.66500
Ni1327     Ni  0.71733359  0.25136280  0.00149496     1.26300
O1328       O  0.77060496  0.24376625  0.57872933    -0.66700
O1329       O  0.68578524  0.21937765  0.00125629    -0.79000
C1330       C  0.68286219  0.30894390  0.51764495     0.84400
O1331       O  0.69009932  0.28732790  0.99022156    -0.66200
Ni1332     Ni  0.75202699  0.18257340  0.97445567     1.27400
Ni1333     Ni  0.77793780  0.24893252  0.51360153     1.26100
H1334       H  0.75452206  0.29533741  0.97399623     0.39000
O1335       O  0.69510482  0.30412918  0.79775594    -0.81000
O1336       O  0.80774102  0.21598918  0.78232788    -0.65700
O1337       O  0.74882465  0.28157829  0.75556219    -1.12300
C1338       C  0.69652426  0.18345023  0.72949822     1.05900
O1339       O  0.80471208  0.19301288  0.72098659    -0.78900
O1340       O  0.76453234  0.21513790  0.66601049    -0.66500
Ni1341     Ni  0.73672565  0.31360556  0.79629542     1.34900
C1342       C  0.75007517  0.24180946  0.65537870     0.84600
O1343       O  0.80665941  0.28428715  0.77705975    -0.79400
O1344       O  0.77722094  0.32646011  0.79879477    -0.89700
C1345       C  0.81755276  0.19586653  0.75493012     0.84200
O1346       O  0.73521815  0.28368028  0.85109591    -0.67900
O1347       O  0.72230771  0.17180142  0.71875663    -0.87200
C1348       C  0.74858478  0.25630816  0.86178625     0.85000
C1349       C  0.80266730  0.31347462  0.79013156     1.06600
H1350       H  0.74328625  0.20294268  0.79016007     0.38400
O1351       O  0.75026875  0.21639583  0.76165812    -1.09900
O1352       O  0.73238414  0.25554296  0.68371347    -0.66500
Ni1353     Ni  0.72005539  0.24815552  0.74778981     1.26300
O1354       O  0.76577704  0.24181096  0.83375914    -0.66700
O1355       O  0.69213236  0.21284975  0.74209386    -0.79000
C1356       C  0.68155828  0.30191247  0.76449097     0.84400
O1357       O  0.69065801  0.28205661  0.73623218    -0.66200
Ni1358     Ni  0.76284347  0.18461640  0.72093614     1.27400
Ni1359     Ni  0.77876994  0.24966926  0.76997076     1.26100
H1360       H  0.75583641  0.29479978  0.72690123     0.39000
C1361       C  0.57231880  0.40744029  0.78696118    -0.05300
C1362       C  0.57868541  0.39310240  0.82926957    -0.05300
C1363       C  0.60041209  0.36828819  0.83317673    -0.23400
C1364       C  0.61592633  0.35723732  0.79479798     0.18800
C1365       C  0.60890543  0.37057643  0.75205839     0.16000
C1366       C  0.58717165  0.39578945  0.74839383    -0.18500
C1367       C  0.62409101  0.35878566  0.71386504    -0.20300
C1368       C  0.64673303  0.33491124  0.71789724    -0.12900
C1369       C  0.65473177  0.32273167  0.76012644     0.03800
C1370       C  0.63877704  0.33360572  0.79848406    -0.25000
H1371       H  0.56697864  0.40145408  0.85920229     0.08900
H1372       H  0.60521744  0.35786279  0.86617633     0.12500
H1373       H  0.58191738  0.40657486  0.71573982     0.12400
H1374       H  0.61888186  0.36854274  0.68083754     0.12200
H1375       H  0.65883478  0.32711431  0.68788060     0.12700
H1376       H  0.64462397  0.32424028  0.83128769     0.14700
C1377       C  0.92068484  0.41007554  0.77250591    -0.05300
C1378       C  0.91916037  0.39797727  0.73162933    -0.05300
C1379       C  0.89661928  0.37504176  0.72759167    -0.23400
C1380       C  0.87490826  0.36431521  0.76421743     0.18800
C1381       C  0.87625985  0.37643785  0.80555824     0.16000
C1382       C  0.89946419  0.39875131  0.80964921    -0.18500
C1383       C  0.85388718  0.36680828  0.84164808    -0.20300
C1384       C  0.83013909  0.34592270  0.83660454    -0.12900
C1385       C  0.82873428  0.33366207  0.79580067     0.03800
C1386       C  0.85141362  0.34246550  0.75987592    -0.25000
H1387       H  0.93537297  0.40656428  0.70274026     0.08900
H1388       H  0.89583157  0.36622668  0.69560713     0.12500
H1389       H  0.90058112  0.40821495  0.84116382     0.12400
H1390       H  0.85431629  0.37612770  0.87338262     0.12200
H1391       H  0.81274350  0.33935841  0.86457431     0.12700
H1392       H  0.85010133  0.33342215  0.72814242     0.14700
C1393       C  0.84437519  0.17552027  0.76223098    -0.05300
C1394       C  0.85631761  0.17402564  0.80271235    -0.05300
C1395       C  0.87982052  0.15233181  0.81131211    -0.23400
C1396       C  0.89179097  0.13160047  0.77968518     0.18800
C1397       C  0.88061448  0.13376202  0.73828469     0.16000
C1398       C  0.85709978  0.15564352  0.72985338    -0.18500
C1399       C  0.89266176  0.11338901  0.70631175    -0.20300
C1400       C  0.91490518  0.09028038  0.71575396    -0.12900
C1401       C  0.92551241  0.08714137  0.75722662     0.03800
C1402       C  0.91424817  0.10823371  0.78896175    -0.25000
H1403       H  0.84701352  0.18902294  0.82828182     0.08900
H1404       H  0.88832766  0.15141608  0.84295727     0.12500
H1405       H  0.84828577  0.15657355  0.69840347     0.12400
H1406       H  0.88451446  0.11488511  0.67430554     0.12200
H1407       H  0.92351863  0.07423538  0.69100467     0.12700
H1408       H  0.92244141  0.10578570  0.82102713     0.14700
C1409       C  0.67081184  0.16063836  0.72814527    -0.05300
C1410       C  0.67380529  0.13519586  0.69978051    -0.05300
C1411       C  0.65113043  0.11110279  0.70112132    -0.23400
C1412       C  0.62510948  0.11149366  0.73145752     0.18600
C1413       C  0.62163215  0.13700273  0.76007238     0.16000
C1414       C  0.64431814  0.16174689  0.75777830    -0.18500
C1415       C  0.59584077  0.13673644  0.79122132    -0.20300
C1416       C  0.57386425  0.11142085  0.79410644    -0.12900
C1417       C  0.57704957  0.08616429  0.76553752     0.03800
C1418       C  0.60272900  0.08647580  0.73409459    -0.25000
H1419       H  0.69396281  0.13368093  0.67673640     0.08900
H1420       H  0.65422150  0.09171647  0.67902753     0.12500
H1421       H  0.64189299  0.18086652  0.78031728     0.12400
H1422       H  0.59279980  0.15587462  0.81366975     0.12200
H1423       H  0.55425647  0.11150660  0.81865707     0.12700
H1424       H  0.60527729  0.06708627  0.71193363     0.14700
C1425       C  0.57846199  0.41536841  0.47005591    -0.05300
C1426       C  0.60142724  0.41685989  0.93206870    -0.05300
C1427       C  0.62529310  0.39452957  0.93311334    -0.23400
C1428       C  0.62673625  0.37057794  0.47231415     0.18800
C1429       C  0.60552543  0.37091697  0.51084942     0.16000
C1430       C  0.58125152  0.39291113  0.50922198    -0.18500
C1431       C  0.60953442  0.35010752  0.55076634    -0.20300
C1432       C  0.63462885  0.32976313  0.55281398    -0.12900
C1433       C  0.65558281  0.32891765  0.51462756     0.03800
C1434       C  0.65128689  0.34898329  0.47420400    -0.25000
H1435       H  0.60028387  0.43515058  0.90238200     0.08900
H1436       H  0.64206582  0.39578214  0.90399188     0.12500
H1437       H  0.56510664  0.39353644  0.53877351     0.12400
H1438       H  0.59364776  0.35020969  0.58069722     0.12200
H1439       H  0.63770470  0.31459554  0.58426889     0.12700
H1440       H  0.66770863  0.34885762  0.44484996     0.14700
C1441       C  0.92505878  0.41108527  0.47925843    -0.05300
C1442       C  0.92088672  0.39637017  0.94256700    -0.05300
C1443       C  0.89841285  0.37168239  0.94487959    -0.23400
C1444       C  0.87925329  0.36168098  0.48402599     0.18800
C1445       C  0.88379157  0.37630456  0.52250705     0.16000
C1446       C  0.90712309  0.40011626  0.52015775    -0.18500
C1447       C  0.86434942  0.36768550  0.56239214    -0.20300
C1448       C  0.84006998  0.34570774  0.56384407    -0.12900
C1449       C  0.83526416  0.33097611  0.52596011     0.03800
C1450       C  0.85535282  0.33846891  0.48625389    -0.25000
H1451       H  0.93491785  0.40397997  0.91100674     0.08900
H1452       H  0.89576801  0.36043426  0.91515355     0.12500
H1453       H  0.91074107  0.41109585  0.54975062     0.12400
H1454       H  0.86739105  0.37876834  0.59212570     0.12200
H1455       H  0.82475844  0.34041180  0.59460086     0.12700
H1456       H  0.85144859  0.32773821  0.45660604     0.14700
C1457       C  0.92431864  0.08867028  0.96580710    -0.05300
C1458       C  0.90584755  0.08795782  0.93265888    -0.05300
C1459       C  0.88102605  0.10857655  0.93192361    -0.23400
C1460       C  0.87436815  0.13067296  0.96403945     0.18800
C1461       C  0.89320253  0.13255232  0.99687452     0.16000
C1462       C  0.91818676  0.11186522  0.49762929    -0.18500
C1463       C  0.88618149  0.15492294  0.02881325    -0.20300
C1464       C  0.86046748  0.17463383  0.02867926    -0.12900
C1465       C  0.84126094  0.17219345  0.99672831     0.03800
C1466       C  0.84877510  0.15037895  0.96417001    -0.25000
H1467       H  0.91023409  0.07054978  0.90806595     0.08900
H1468       H  0.86671286  0.10676940  0.90666768     0.12500
H1469       H  0.93268749  0.11315007  0.52278602     0.12400
H1470       H  0.90114478  0.15904203  0.55202771     0.12200
H1471       H  0.85528969  0.19118611  0.05412739     0.12700
H1472       H  0.83444709  0.14828732  0.93898335     0.14700
C1473       C  0.65763765  0.17431958  0.98178967    -0.05300
C1474       C  0.63195407  0.17929612  0.01137120    -0.05300
C1475       C  0.60567047  0.16104581  0.01069135    -0.23400
C1476       C  0.60445593  0.13777796  0.98001474     0.18800
C1477       C  0.62963844  0.13410845  0.94835975     0.16000
C1478       C  0.65606718  0.15213122  0.94969211    -0.18500
C1479       C  0.62826254  0.11161659  0.91681255    -0.20300
C1480       C  0.60291756  0.09127717  0.91847965    -0.12900
C1481       C  0.57857407  0.09281897  0.95188526     0.03800
C1482       C  0.57902016  0.11708328  0.98159727    -0.25000
H1483       H  0.63248120  0.19644292  0.03612590     0.08900
H1484       H  0.58650291  0.16455340  0.03484692     0.12500
H1485       H  0.67554637  0.14852314  0.92612239     0.12400
H1486       H  0.64714515  0.10890709  0.89178801     0.12200
H1487       H  0.60279074  0.07303833  0.89497887     0.12700
H1488       H  0.56024119  0.11852905  0.00728872     0.14700
N1489       N  0.54648275  0.00378502  0.96342304    -0.36700
N1490       N  0.00216841  0.55523906  0.96566569    -0.57300
N1491       N  0.95720590  0.50093649  0.97227379    -0.36700
N1492       N  0.50149643  0.94914545  0.97640132    -0.57300
C1493       C  0.56249189  0.53142289  0.96878057     0.26900
C1494       C  0.56298505  0.97586950  0.97308659     0.26900
C1495       C  0.93982300  0.52805138  0.97953169     0.26900
C1496       C  0.93980740  0.97230694  0.98266175     0.26900
C1497       C  0.52489959  0.57601834  0.95587892     0.35500
C1498       C  0.97836973  0.57477431  0.95879166     0.35500
C1499       C  0.52608197  0.93066381  0.96735894     0.35500
C1500       C  0.97902792  0.92886562  0.97002000     0.35500
C1501       C  0.58937388  0.52088565  0.98211696    -0.22000
C1502       C  0.58973275  0.98597401  0.98464286    -0.22000
C1503       C  0.91100133  0.51647726  0.99486709    -0.22000
C1504       C  0.91090466  0.98156034  0.99629358    -0.22000
C1505       C  0.51619499  0.60872925  0.94091782    -0.23100
C1506       C  0.98754635  0.60806118  0.94174461    -0.23100
C1507       C  0.51817142  0.89835473  0.95969069    -0.23100
C1508       C  0.98878680  0.89641971  0.96328039    -0.23000
C1509       C  0.55449243  0.56609167  0.95877305    -0.18400
C1510       C  0.55539286  0.94170352  0.96924001    -0.18400
C1511       C  0.94883887  0.93835395  0.97740197    -0.18400
C1512       C  0.94846194  0.56316399  0.96884589    -0.18400
H1513       H  0.60711817  0.53680005  0.98886765     0.14500
H1514       H  0.60779059  0.96981430  0.99366749     0.14500
H1515       H  0.89175035  0.53169736  0.00298103     0.14500
H1516       H  0.89137403  0.96522502  0.00549345     0.14500
H1517       H  0.53030019  0.63094557  0.92807694     0.12800
H1518       H  0.97374768  0.62956042  0.93282230     0.12800
H1519       H  0.53280533  0.87766889  0.95222955     0.12800
H1520       H  0.97550851  0.87409618  0.96138766     0.12800
H1521       H  0.52715631  0.00423682  0.94877158     0.26100
H1522       H  0.97877196  0.50239628  0.95593853     0.26000
N1523       N  0.95409719  0.49785892  0.27344796    -0.36700
N1524       N  0.49686688  0.94520595  0.27790681    -0.57300
N1525       N  0.54377736  0.99703513  0.27284711    -0.36700
N1526       N  0.99950344  0.54917711  0.27996595    -0.57300
C1527       C  0.93552260  0.97034224  0.27802228     0.26900
C1528       C  0.93719538  0.52595144  0.27541804     0.26900
C1529       C  0.55873485  0.96816758  0.28415713     0.26900
C1530       C  0.56059399  0.52396051  0.27859540     0.26900
C1531       C  0.97338395  0.92428327  0.27670788     0.35500
C1532       C  0.52068350  0.92473910  0.27519692     0.35500
C1533       C  0.97740666  0.57043248  0.26936404     0.35500
C1534       C  0.52518616  0.57055416  0.26106292     0.35500
C1535       C  0.90643875  0.98133530  0.28216090    -0.22000
C1536       C  0.90750373  0.51623921  0.28097616    -0.22000
C1537       C  0.58553906  0.97697387  0.29685518    -0.22000
C1538       C  0.58663967  0.51205216  0.29354029    -0.22000
C1539       C  0.98214458  0.89097927  0.27340970    -0.23100
C1540       C  0.51204278  0.89215053  0.26945980    -0.23100
C1541       C  0.98819719  0.60378438  0.25865492    -0.23100
C1542       C  0.51857567  0.60393269  0.24517734    -0.23000
C1543       C  0.94398285  0.93588633  0.27589971    -0.18400
C1544       C  0.94759131  0.56040249  0.26889558    -0.18400
C1545       C  0.55380783  0.55907074  0.26848841    -0.18400
C1546       C  0.54978239  0.93427177  0.28071128    -0.18400
H1547       H  0.88637923  0.96606517  0.28504336     0.14500
H1548       H  0.88846884  0.53267004  0.28298520     0.14500
H1549       H  0.60275882  0.95994668  0.30701731     0.14500
H1550       H  0.60475634  0.52709209  0.30090676     0.14500
H1551       H  0.96859672  0.86945951  0.26921665     0.12800
H1552       H  0.52579404  0.86992718  0.26714854     0.12800
H1553       H  0.97604805  0.62647716  0.24867199     0.12800
H1554       H  0.53381547  0.62548995  0.23487264     0.12800
H1555       H  0.97678865  0.49806119  0.26414965     0.26100
H1556       H  0.52488637  0.99845518  0.25722121     0.26000
O1557       O  0.69841357  0.81240775  0.04818135    -0.81000
O1558       O  0.80722718  0.71417477  0.02210491    -0.65700
O1559       O  0.74871723  0.78265833  0.50338396    -1.12300
C1560       C  0.68565819  0.69211111  0.48498495     1.05900
O1561       O  0.79365688  0.68092311  0.47404986    -0.78900
O1562       O  0.75748918  0.71389005  0.42047457    -0.66500
Ni1563     Ni  0.74125631  0.81560234  0.04430506     1.34900
C1564       C  0.74383903  0.74103764  0.40937240     0.84600
O1565       O  0.80898859  0.78279167  0.01217903    -0.79400
O1566       O  0.78316625  0.82400674  0.04338986    -0.89700
C1567       C  0.81225633  0.69021414  0.49780445     0.84200
O1568       O  0.73907659  0.78419711  0.09821417    -0.67900
O1569       O  0.70959786  0.67811498  0.47058577    -0.87200
C1570       C  0.75365030  0.75749673  0.10810688     0.85000
C1571       C  0.80748458  0.81142759  0.02728866     1.06600
H1572       H  0.74032531  0.70523030  0.04394452     0.38400
O1573       O  0.74613576  0.71694513  0.01398308    -1.09900
O1574       O  0.72640274  0.75559260  0.43722817    -0.66500
Ni1575     Ni  0.71706023  0.75149199  0.50187801     1.26300
O1576       O  0.77069187  0.74370493  0.07900627    -0.66700
O1577       O  0.68536312  0.71962237  0.50225898    -0.79000
C1578       C  0.68298631  0.80852209  0.01735646     0.84400
O1579       O  0.68986079  0.78754226  0.49078392    -0.66200
Ni1580     Ni  0.75138465  0.68267790  0.47445531     1.27400
Ni1581     Ni  0.77820788  0.74896543  0.01397558     1.26100
H1582       H  0.75433877  0.79525720  0.47385160     0.39000
O1583       O  0.69491184  0.80436971  0.29723621    -0.81000
O1584       O  0.80783435  0.71612176  0.28270941    -0.65700
O1585       O  0.74880496  0.78153465  0.25571123    -1.12300
C1586       C  0.69691114  0.68312591  0.22948566     1.05900
O1587       O  0.80496137  0.69330491  0.22123106    -0.78900
O1588       O  0.76475892  0.71510924  0.16618212    -0.66500
Ni1589     Ni  0.73654521  0.81356993  0.29637426     1.34900
C1590       C  0.75025678  0.74175120  0.15558234     0.84600
O1591       O  0.80664923  0.78450373  0.27713606    -0.79400
O1592       O  0.77700607  0.82631236  0.29943088    -0.89700
C1593       C  0.81762718  0.69591647  0.25539886     0.84200
O1594       O  0.73470463  0.78353946  0.35115215    -0.67900
O1595       O  0.72271745  0.67152545  0.21882361    -0.87200
C1596       C  0.74837517  0.75642222  0.36201176     0.85000
C1597       C  0.80253020  0.81357332  0.29050595     1.06600
H1598       H  0.74348081  0.70287378  0.29042877     0.38400
O1599       O  0.75044156  0.71632880  0.26191922    -1.09900
O1600       O  0.73255276  0.75542080  0.18391724    -0.66500
Ni1601     Ni  0.72018138  0.74794713  0.24790820     1.26300
O1602       O  0.76582947  0.74209056  0.33408457    -0.66700
O1603       O  0.69243267  0.71250735  0.24209729    -0.79000
C1604       C  0.68147620  0.80166227  0.26397615     0.84400
O1605       O  0.69073771  0.78163587  0.23605333    -0.66200
Ni1606     Ni  0.76317067  0.68460615  0.22111401     1.27400
Ni1607     Ni  0.77882850  0.74974877  0.27022483     1.26100
H1608       H  0.75581750  0.79476021  0.22705397     0.39000
C1609       C  0.57201890  0.90681901  0.28475281    -0.05300
C1610       C  0.57792305  0.89224913  0.32721461    -0.05300
C1611       C  0.59949772  0.86730889  0.33145399    -0.23400
C1612       C  0.61533452  0.85637720  0.29325038     0.18800
C1613       C  0.60872549  0.86987518  0.25032340     0.16000
C1614       C  0.58712292  0.89521340  0.24632559    -0.18500
C1615       C  0.62424367  0.85817726  0.21230262    -0.20300
C1616       C  0.64689112  0.83435621  0.21671519    -0.12900
C1617       C  0.65454134  0.82214982  0.25915944     0.03800
C1618       C  0.63816925  0.83278908  0.29731865    -0.25000
H1619       H  0.56600410  0.90056209  0.35702438     0.08900
H1620       H  0.60397638  0.85674550  0.36457741     0.12500
H1621       H  0.58221637  0.90617749  0.21354390     0.12400
H1622       H  0.61933841  0.86802337  0.17913393     0.12200
H1623       H  0.65930986  0.82668872  0.18684883     0.12700
H1624       H  0.64373905  0.82335183  0.33026840     0.14700
C1625       C  0.92050698  0.91041729  0.27264564    -0.05300
C1626       C  0.91925864  0.89778358  0.23203423    -0.05300
C1627       C  0.89678258  0.87470308  0.22814227    -0.23400
C1628       C  0.87483256  0.86440056  0.26460840     0.18800
C1629       C  0.87584016  0.87716809  0.30561194     0.16000
C1630       C  0.89899141  0.89958524  0.30959954    -0.18500
C1631       C  0.85321758  0.86801549  0.34148667    -0.20300
C1632       C  0.82957393  0.84692584  0.33656607    -0.12900
C1633       C  0.82851955  0.83396138  0.29612895     0.03800
C1634       C  0.85145034  0.84232130  0.26042942    -0.25000
H1635       H  0.93567756  0.90599662  0.20326844     0.08900
H1636       H  0.89625204  0.86541360  0.19639202     0.12500
H1637       H  0.89986857  0.90947319  0.34089738     0.12400
H1638       H  0.85339275  0.87783599  0.37295405     0.12200
H1639       H  0.81199142  0.84073801  0.36435822     0.12700
H1640       H  0.85041863  0.83276161  0.22894878     0.14700
C1641       C  0.84421075  0.67523705  0.26306031    -0.05300
C1642       C  0.85589065  0.67356616  0.30376814    -0.05300
C1643       C  0.87932043  0.65182706  0.31257889    -0.23400
C1644       C  0.89155705  0.63130302  0.28087159     0.18800
C1645       C  0.88053499  0.63348380  0.23934478     0.16000
C1646       C  0.85700279  0.65531219  0.23077497    -0.18500
C1647       C  0.89284163  0.61328992  0.20731799    -0.20300
C1648       C  0.91529291  0.59046813  0.21674065    -0.12900
C1649       C  0.92579570  0.58736073  0.25829795     0.03800
C1650       C  0.91417494  0.60816702  0.29016780    -0.25000
H1651       H  0.84647013  0.68851793  0.32931873     0.08900
H1652       H  0.88762201  0.65078701  0.34440060     0.12500
H1653       H  0.84832801  0.65629426  0.19920819     0.12400
H1654       H  0.88478209  0.61474838  0.17525023     0.12200
H1655       H  0.92410897  0.57455467  0.19194372     0.12700
H1656       H  0.92222005  0.60567133  0.32234651     0.14700
C1657       C  0.67124350  0.66029367  0.22811516    -0.05300
C1658       C  0.67394173  0.63544726  0.19888829    -0.05300
C1659       C  0.65126232  0.61133407  0.20021667    -0.23400
C1660       C  0.62558455  0.61110314  0.23142369     0.18600
C1661       C  0.62246815  0.63600269  0.26093474     0.16000
C1662       C  0.64510745  0.66077576  0.25862939    -0.18500
C1663       C  0.59707518  0.63513837  0.29294584    -0.20300
C1664       C  0.57505791  0.60990792  0.29570209    -0.12900
C1665       C  0.57781134  0.58532289  0.26618257     0.03800
C1666       C  0.60317008  0.58611649  0.23401123    -0.25000
H1667       H  0.69385411  0.63444227  0.17517344     0.08900
H1668       H  0.65408237  0.59242801  0.17741378     0.12500
H1669       H  0.64295293  0.67942492  0.28182818     0.12400
H1670       H  0.59435555  0.65378288  0.31610805     0.12200
H1671       H  0.55572290  0.60957607  0.32084037     0.12700
H1672       H  0.60539903  0.56720148  0.21116681     0.14700
C1673       C  0.57944130  0.91606245  0.96931136    -0.05300
C1674       C  0.59984715  0.91515292  0.43206417    -0.05300
C1675       C  0.62361011  0.89267368  0.43301469    -0.23400
C1676       C  0.62787587  0.87147599  0.97186037     0.18800
C1677       C  0.60586433  0.87069899  0.00964451     0.16000
C1678       C  0.58154960  0.89261461  0.00784897    -0.18500
C1679       C  0.60907077  0.84880701  0.04906449    -0.20300
C1680       C  0.63411725  0.82842309  0.05139745    -0.12900
C1681       C  0.65585187  0.82866378  0.01393008     0.03800
C1682       C  0.65241778  0.84987745  0.97395528    -0.25000
H1683       H  0.59822367  0.93273891  0.40189693     0.08900
H1684       H  0.63982588  0.89310621  0.40335139     0.12500
H1685       H  0.56479268  0.89236077  0.03686142     0.12400
H1686       H  0.59255703  0.84804753  0.07842967     0.12200
H1687       H  0.63653945  0.81236188  0.08249941     0.12700
H1688       H  0.66944373  0.85056329  0.94519319     0.14700
C1689       C  0.92535469  0.91123100  0.98048293    -0.05300
C1690       C  0.92053026  0.89637696  0.44114456    -0.05300
C1691       C  0.89821088  0.87145686  0.44367369    -0.23400
C1692       C  0.87922381  0.86228593  0.98479341     0.18800
C1693       C  0.88340083  0.87726566  0.02315805     0.16000
C1694       C  0.90688836  0.90083673  0.02107350    -0.18500
C1695       C  0.86350448  0.86917136  0.06266708    -0.20300
C1696       C  0.83929065  0.84712801  0.06395434    -0.12900
C1697       C  0.83495359  0.83182170  0.02629829     0.03800
C1698       C  0.85533828  0.83905715  0.98685919    -0.25000
H1699       H  0.93424279  0.90431084  0.40938684     0.08900
H1700       H  0.89532349  0.86041128  0.41388548     0.12500
H1701       H  0.91022059  0.91209346  0.05058406     0.12400
H1702       H  0.86621132  0.88061001  0.09226361     0.12200
H1703       H  0.82370514  0.84214920  0.09445681     0.12700
H1704       H  0.85175785  0.82799118  0.95731361     0.14700
C1705       C  0.92395787  0.58820507  0.46697703    -0.05300
C1706       C  0.90514124  0.58666798  0.43444498    -0.05300
C1707       C  0.88026111  0.60716513  0.43350075    -0.23400
C1708       C  0.87388756  0.62998086  0.46476506     0.18800
C1709       C  0.89317619  0.63286071  0.49673033     0.16000
C1710       C  0.91826172  0.61141716  0.99763226    -0.18500
C1711       C  0.88654884  0.65610818  0.52762472    -0.20300
C1712       C  0.86069237  0.67555522  0.52752833    -0.12900
C1713       C  0.84093355  0.67195841  0.49668873     0.03800
C1714       C  0.84812794  0.64940574  0.46495977    -0.25000
H1715       H  0.90931028  0.56871077  0.41051702     0.08900
H1716       H  0.86569018  0.60471063  0.40876636     0.12500
H1717       H  0.93242628  0.61190449  0.02339621     0.12400
H1718       H  0.90038648  0.65676601  0.05434662     0.12200
H1719       H  0.85583876  0.69280845  0.55219587     0.12700
H1720       H  0.83341686  0.64649720  0.44053356     0.14700
C1721       C  0.65706625  0.67518519  0.48159878    -0.05300
C1722       C  0.63139787  0.68010267  0.51124801    -0.05300
C1723       C  0.60523477  0.66152058  0.51094000    -0.23400
C1724       C  0.60415292  0.63793972  0.48063031     0.18800
C1725       C  0.62926638  0.63441477  0.44879971     0.16000
C1726       C  0.65554360  0.65284507  0.44967093    -0.18500
C1727       C  0.62801793  0.61159228  0.41762564    -0.20300
C1728       C  0.60287610  0.59081157  0.41983060    -0.12900
C1729       C  0.57860378  0.59227140  0.45337945     0.03800
C1730       C  0.57893060  0.61680851  0.48275362    -0.25000
H1731       H  0.63186925  0.69738655  0.53585100     0.08900
H1732       H  0.58609271  0.66494937  0.53518069     0.12500
H1733       H  0.67499586  0.64929095  0.42602305     0.12400
H1734       H  0.64684706  0.60899797  0.39246094     0.12200
H1735       H  0.60281804  0.57242113  0.39651726     0.12700
H1736       H  0.56019554  0.61822107  0.50852788     0.14700
N1737       N  0.54613814  0.00340192  0.46449955    -0.36700
N1738       N  0.00188480  0.55501713  0.46669414    -0.57300
N1739       N  0.95693269  0.50078827  0.47198399    -0.36700
N1740       N  0.50086523  0.94907679  0.47628770    -0.57300
C1741       C  0.56235080  0.53092146  0.46982419     0.26900
C1742       C  0.56251514  0.97532253  0.47384140     0.26900
C1743       C  0.93967055  0.52771204  0.48065421     0.26900
C1744       C  0.93963497  0.97201966  0.48249024     0.26900
C1745       C  0.52483129  0.57576878  0.45790068     0.35500
C1746       C  0.97803133  0.57462235  0.46048022     0.35500
C1747       C  0.52538845  0.93042878  0.46759283     0.35500
C1748       C  0.97877956  0.92894719  0.46805688     0.35500
C1749       C  0.58926044  0.52012900  0.48280565    -0.22000
C1750       C  0.58940911  0.98516894  0.48518657    -0.22000
C1751       C  0.91102608  0.51595488  0.49695698    -0.22000
C1752       C  0.91091447  0.98102404  0.49764291    -0.22000
C1753       C  0.51619429  0.60859747  0.44336365    -0.23100
C1754       C  0.98710777  0.60808664  0.44431916    -0.23100
C1755       C  0.51739473  0.89814073  0.45995746    -0.23100
C1756       C  0.98860391  0.89666244  0.46062713    -0.23000
C1757       C  0.55443660  0.56566757  0.46027909    -0.18400
C1758       C  0.55469970  0.94124285  0.46985789    -0.18400
C1759       C  0.94859625  0.93824887  0.47606799    -0.18400
C1760       C  0.94816341  0.56287221  0.47024308    -0.18400
H1761       H  0.60715148  0.53587127  0.48945949     0.14500
H1762       H  0.60743195  0.96884003  0.49391601     0.14500
H1763       H  0.89191381  0.53104298  0.50631166     0.14500
H1764       H  0.89148837  0.96457449  0.50738021     0.14500
H1765       H  0.53034082  0.63077859  0.43051983     0.12800
H1766       H  0.97326289  0.62968633  0.43607235     0.12800
H1767       H  0.53195673  0.87731714  0.45283873     0.12800
H1768       H  0.97538271  0.87441858  0.45820277     0.12800
H1769       H  0.52672296  0.00409287  0.45006147     0.26100
H1770       H  0.97823087  0.50252155  0.45459301     0.26000
N1771       N  0.95402312  0.49765454  0.77265440    -0.36700
N1772       N  0.49681125  0.94507273  0.77998680    -0.57300
N1773       N  0.54349696  0.99737162  0.77379354    -0.36700
N1774       N  0.99924754  0.54918499  0.77887350    -0.57300
C1775       C  0.93549405  0.97006110  0.77786959     0.26900
C1776       C  0.93703985  0.52569598  0.77454696     0.26900
C1777       C  0.55860045  0.96872400  0.78562460     0.26900
C1778       C  0.56015819  0.52461350  0.77912183     0.26900
C1779       C  0.97347418  0.92414297  0.77647156     0.35500
C1780       C  0.52069639  0.92468305  0.77797372     0.35500
C1781       C  0.97718029  0.57031022  0.76780191     0.35500
C1782       C  0.52461266  0.57070311  0.76022285     0.35500
C1783       C  0.90637264  0.98092253  0.78239769    -0.22000
C1784       C  0.90736840  0.51583789  0.78059460    -0.22000
C1785       C  0.58537579  0.97795190  0.79802872    -0.22000
C1786       C  0.58625476  0.51310969  0.79427400    -0.22000
C1787       C  0.98230751  0.89085213  0.77324492    -0.23100
C1788       C  0.51216589  0.89181034  0.77327745    -0.23100
C1789       C  0.98796374  0.60364748  0.75661594    -0.23100
C1790       C  0.51789863  0.60381000  0.74328649    -0.23000
C1791       C  0.94403080  0.93561721  0.77588131    -0.18400
C1792       C  0.94735798  0.56019153  0.76764550    -0.18400
C1793       C  0.55322015  0.55961103  0.76822794    -0.18400
C1794       C  0.54980266  0.93462742  0.78294417    -0.18400
H1795       H  0.88634491  0.96550788  0.78585556     0.14500
H1796       H  0.88828906  0.53219755  0.78269804     0.14500
H1797       H  0.60267974  0.96117368  0.80848118     0.14500
H1798       H  0.60429596  0.52843559  0.80130646     0.14500
H1799       H  0.96876931  0.86924861  0.76930289     0.12800
H1800       H  0.52598752  0.86958058  0.77172711     0.12800
H1801       H  0.97582037  0.62624887  0.74622673     0.12800
H1802       H  0.53306508  0.62537127  0.73237254     0.12800
H1803       H  0.97669631  0.49792176  0.76306405     0.26100
H1804       H  0.52457850  0.99840455  0.75824808     0.26000
O1805       O  0.69862145  0.81315658  0.54806941    -0.81000
O1806       O  0.80697035  0.71409675  0.52162439    -0.65700
O1807       O  0.74884921  0.78259359  0.00353953    -1.12300
C1808       C  0.68622256  0.69128855  0.98522338     1.05900
O1809       O  0.79442831  0.68195239  0.97314149    -0.78900
O1810       O  0.75726176  0.71329407  0.92016723    -0.66500
Ni1811     Ni  0.74150511  0.81573408  0.54417361     1.34900
C1812       C  0.74401152  0.74076081  0.90920006     0.84600
O1813       O  0.80891253  0.78246102  0.51150463    -0.79400
O1814       O  0.78350696  0.82360578  0.54339648    -0.89700
C1815       C  0.81271730  0.69062118  0.99778664     0.84200
O1816       O  0.73901939  0.78425380  0.59802074    -0.67900
O1817       O  0.71021478  0.67694437  0.97181981    -0.87200
C1818       C  0.75355521  0.75753787  0.60794679     0.85000
C1819       C  0.80768619  0.81092249  0.52696326     1.06600
H1820       H  0.74003097  0.70523961  0.54405086     0.38400
O1821       O  0.74576022  0.71697058  0.51407706    -1.09900
O1822       O  0.72698446  0.75565070  0.93712035    -0.66500
Ni1823     Ni  0.71734502  0.75130901  0.00160895     1.26300
O1824       O  0.77061933  0.74373792  0.57883486    -0.66700
O1825       O  0.68579682  0.71931456  0.00137918    -0.79000
C1826       C  0.68290222  0.80891412  0.51771193     0.84400
O1827       O  0.69010775  0.78727724  0.99032069    -0.66200
Ni1828     Ni  0.75204746  0.68251836  0.97459870     1.27400
Ni1829     Ni  0.77796604  0.74887300  0.51370736     1.26100
H1830       H  0.75454662  0.79525903  0.97406713     0.39000
O1831       O  0.69511224  0.80418535  0.79783762    -0.81000
O1832       O  0.80772087  0.71594472  0.78239587    -0.65700
O1833       O  0.74883226  0.78158417  0.75570043    -1.12300
C1834       C  0.69645035  0.68352182  0.72958881     1.05900
O1835       O  0.80464906  0.69293818  0.72108668    -0.78900
O1836       O  0.76448464  0.71511386  0.66611661    -0.66500
Ni1837     Ni  0.73673633  0.81356719  0.79649886     1.34900
C1838       C  0.75008016  0.74182633  0.65547704     0.84600
O1839       O  0.80667007  0.78424064  0.77715897    -0.79400
O1840       O  0.77723209  0.82633519  0.79914041    -0.89700
C1841       C  0.81750859  0.69580499  0.75500771     0.84200
O1842       O  0.73514941  0.78355872  0.85123315    -0.67900
O1843       O  0.72222051  0.67182931  0.71887809    -0.87200
C1844       C  0.74857006  0.75622484  0.86191141     0.85000
C1845       C  0.80267906  0.81337543  0.79038432     1.06600
H1846       H  0.74323922  0.70295667  0.79027480     0.38400
O1847       O  0.75023310  0.71639809  0.76176905    -1.09900
O1848       O  0.73241146  0.75559274  0.68380709    -0.66500
Ni1849     Ni  0.72004977  0.74819551  0.74788212     1.26300
O1850       O  0.76580371  0.74177874  0.83387824    -0.66700
O1851       O  0.69209127  0.71293137  0.74216264    -0.79000
C1852       C  0.68159404  0.80198809  0.76453885     0.84400
O1853       O  0.69069544  0.78212871  0.73629009    -0.66200
Ni1854     Ni  0.76276993  0.68459758  0.72105246     1.27400
Ni1855     Ni  0.77876190  0.74964555  0.77007568     1.26100
H1856       H  0.75584833  0.79482713  0.72705585     0.39000
C1857       C  0.57231535  0.90746233  0.78681187    -0.05300
C1858       C  0.57868243  0.89316957  0.82913748    -0.05300
C1859       C  0.60042931  0.86838841  0.83308310    -0.23400
C1860       C  0.61596298  0.85732905  0.79472604     0.18800
C1861       C  0.60895516  0.87063970  0.75196728     0.16000
C1862       C  0.58719858  0.89581836  0.74826393    -0.18500
C1863       C  0.62417460  0.85885460  0.71379532    -0.20300
C1864       C  0.64682122  0.83499414  0.71787138    -0.12900
C1865       C  0.65478972  0.82282642  0.76012293     0.03800
C1866       C  0.63881761  0.83371274  0.79845495    -0.25000
H1867       H  0.56696910  0.90154146  0.85905327     0.08900
H1868       H  0.60523705  0.85799919  0.86609493     0.12500
H1869       H  0.58195393  0.90658618  0.71559733     0.12400
H1870       H  0.61898266  0.86859831  0.68075362     0.12200
H1871       H  0.65894384  0.82719087  0.68787382     0.12700
H1872       H  0.64464699  0.82436016  0.83127339     0.14700
C1873       C  0.92063062  0.91007062  0.77268003    -0.05300
C1874       C  0.91912376  0.89791598  0.73183517    -0.05300
C1875       C  0.89661133  0.87493195  0.72784258    -0.23400
C1876       C  0.87490799  0.86421453  0.76447911     0.18800
C1877       C  0.87623901  0.87639058  0.80579115     0.16000
C1878       C  0.89941619  0.89875777  0.80983819    -0.18500
C1879       C  0.85387040  0.86676118  0.84188899    -0.20300
C1880       C  0.83013765  0.84584191  0.83686804    -0.12900
C1881       C  0.82874799  0.83354679  0.79608069     0.03800
C1882       C  0.85143380  0.84233088  0.76016449    -0.25000
H1883       H  0.93533413  0.90648885  0.70293791     0.08900
H1884       H  0.89583865  0.86607211  0.69588166     0.12500
H1885       H  0.90052058  0.90826269  0.84132911     0.12400
H1886       H  0.85428440  0.87611578  0.87360442     0.12200
H1887       H  0.81273784  0.83928940  0.86483491     0.12700
H1888       H  0.85013353  0.83325955  0.72844489     0.14700
C1889       C  0.84432608  0.67544878  0.76230128    -0.05300
C1890       C  0.85624060  0.67390547  0.80281031    -0.05300
C1891       C  0.87973498  0.65219890  0.81140782    -0.23400
C1892       C  0.89173267  0.63151149  0.77974425     0.18800
C1893       C  0.88058705  0.63372511  0.73831504     0.16000
C1894       C  0.85707261  0.65561091  0.72989208    -0.18500
C1895       C  0.89267113  0.61340642  0.70629917    -0.20300
C1896       C  0.91492639  0.59030743  0.71571930    -0.12900
C1897       C  0.92550681  0.58712055  0.75721410     0.03800
C1898       C  0.91419608  0.60814789  0.78900328    -0.25000
H1899       H  0.84691945  0.68887281  0.82840364     0.08900
H1900       H  0.88822067  0.65124708  0.84307324     0.12500
H1901       H  0.84828132  0.65658173  0.69841916     0.12400
H1902       H  0.88454883  0.61494308  0.67427055     0.12200
H1903       H  0.92357279  0.57430938  0.69093128     0.12700
H1904       H  0.92236443  0.60565862  0.82108916     0.14700
C1905       C  0.67071445  0.66075316  0.72820884    -0.05300
C1906       C  0.67363996  0.63545422  0.69963456    -0.05300
C1907       C  0.65096309  0.61136978  0.70094039    -0.23400
C1908       C  0.62501023  0.61162163  0.73145112     0.18600
C1909       C  0.62159355  0.63699811  0.76026613     0.16000
C1910       C  0.64428077  0.66173837  0.75801068    -0.18500
C1911       C  0.59586372  0.63660042  0.79156638    -0.20300
C1912       C  0.57388931  0.61128756  0.79439984    -0.12900
C1913       C  0.57702617  0.58615332  0.76565354     0.03800
C1914       C  0.60264147  0.58659129  0.73406554    -0.25000
H1915       H  0.69374997  0.63404339  0.67645503     0.08900
H1916       H  0.65400354  0.59209276  0.67868287     0.12500
H1917       H  0.64191117  0.68074867  0.78070583     0.12400
H1918       H  0.59286838  0.65563521  0.81416601     0.12200
H1919       H  0.55432497  0.61127471  0.81905377     0.12700
H1920       H  0.60514638  0.56729445  0.71176844     0.14700
C1921       C  0.57856011  0.91540075  0.46999393    -0.05300
C1922       C  0.60152013  0.91693299  0.93212477    -0.05300
C1923       C  0.62538199  0.89459340  0.93318739    -0.23400
C1924       C  0.62681540  0.87057275  0.47228649     0.18800
C1925       C  0.60557837  0.87090106  0.51079284     0.16000
C1926       C  0.58131833  0.89291470  0.50914783    -0.18500
C1927       C  0.60954573  0.85006076  0.55070612    -0.20300
C1928       C  0.63463624  0.82971425  0.55279365    -0.12900
C1929       C  0.65563016  0.82889784  0.51464857     0.03800
C1930       C  0.65136653  0.84897753  0.47421506    -0.25000
H1931       H  0.60039828  0.93523677  0.90244320     0.08900
H1932       H  0.64217464  0.89586076  0.90408894     0.12500
H1933       H  0.56515520  0.89352881  0.53868097     0.12400
H1934       H  0.59363005  0.85014380  0.58060875     0.12200
H1935       H  0.63767877  0.81452415  0.58424831     0.12700
H1936       H  0.66781205  0.84886178  0.44488715     0.14700
C1937       C  0.92517493  0.91103335  0.47922879    -0.05300
C1938       C  0.92097396  0.89635584  0.94246229    -0.05300
C1939       C  0.89849616  0.87166466  0.94478513    -0.23400
C1940       C  0.87935023  0.86163949  0.48397686     0.18800
C1941       C  0.88389471  0.87625420  0.52246133     0.16000
C1942       C  0.90723548  0.90005530  0.52012293    -0.18500
C1943       C  0.86444856  0.86763986  0.56234264    -0.20300
C1944       C  0.84016002  0.84567487  0.56379271    -0.12900
C1945       C  0.83534086  0.83094966  0.52590968     0.03800
C1946       C  0.85543287  0.83844187  0.48619900    -0.25000
H1947       H  0.93501277  0.90394838  0.91090445     0.08900
H1948       H  0.89586268  0.86039447  0.91507176     0.12500
H1949       H  0.91085154  0.91102922  0.54972066     0.12400
H1950       H  0.86749567  0.87871580  0.59207904     0.12200
H1951       H  0.82485085  0.84038234  0.59455225     0.12700
H1952       H  0.85152282  0.82771832  0.45654901     0.14700
C1953       C  0.92436191  0.58865149  0.96584414    -0.05300
C1954       C  0.90586654  0.58793092  0.93272785    -0.05300
C1955       C  0.88102390  0.60851946  0.93205088    -0.23400
C1956       C  0.87437299  0.63060414  0.96418297     0.18800
C1957       C  0.89323181  0.63249831  0.99698102     0.16000
C1958       C  0.91822927  0.61184495  0.49769354    -0.18500
C1959       C  0.88621561  0.65485869  0.02893585    -0.20300
C1960       C  0.86049159  0.67455778  0.02883882    -0.12900
C1961       C  0.84126789  0.67211324  0.99691200     0.03800
C1962       C  0.84876735  0.65029077  0.96435729    -0.25000
H1963       H  0.91024281  0.57052632  0.90812875     0.08900
H1964       H  0.86668856  0.60669679  0.90682804     0.12500
H1965       H  0.93270010  0.61307409  0.52290293     0.12400
H1966       H  0.90110927  0.65887504  0.55226887     0.12200
H1967       H  0.85532431  0.69111090  0.05428830     0.12700
H1968       H  0.83442437  0.64818789  0.93919352     0.14700
C1969       C  0.65766236  0.67425393  0.98186943    -0.05300
C1970       C  0.63195743  0.67926269  0.01138885    -0.05300
C1971       C  0.60567836  0.66101065  0.01068692    -0.23400
C1972       C  0.60448758  0.63770955  0.98004686     0.18800
C1973       C  0.62969225  0.63400329  0.94844978     0.16000
C1974       C  0.65611764  0.65202795  0.94980559    -0.18500
C1975       C  0.62833796  0.61147789  0.91693618    -0.20300
C1976       C  0.60298723  0.59115070  0.91857766    -0.12900
C1977       C  0.57861643  0.59273367  0.95192900     0.03800
C1978       C  0.57904925  0.61702314  0.98160952    -0.25000
H1979       H  0.63246256  0.69643796  0.03611435     0.08900
H1980       H  0.58649323  0.66454606  0.03479668     0.12500
H1981       H  0.67561293  0.64839313  0.92628044     0.12400
H1982       H  0.64723880  0.60873693  0.89195600     0.12200
H1983       H  0.60287547  0.57289025  0.89510207     0.12700
H1984       H  0.56025374  0.61849851  0.00726380     0.14700
loop_ 
_geom_bond_atom_site_label_1 
_geom_bond_atom_site_label_2 
_geom_bond_distance 
_geom_bond_site_symmetry_2 
_ccdc_geom_bond_type 
N1            C6   1.355       .  A
N1          C501   1.355       .  A
N1           H33   1.038       .  S
N2           C10   1.352       .  A
N2         C1001   1.354       .  A
N3            C7   1.355       .  A
N3          C504   1.358   1_545  A
N3           H34   1.036       .  S
N4           C11   1.353       .  A
N4         C1004   1.354   1_455  A
C5          N497   1.355       .  A
C5           C13   1.388       .  A
C5           C21   1.419       .  A
C6           C22   1.416       .  A
C6           C14   1.387       .  A
C7           C15   1.386   1_556  A
C7           C24   1.421       .  A
C8          N499   1.358       .  A
C8           C23   1.425       .  A
C8           C16   1.389   1_556  A
C9          N994   1.353       .  A
C9           C21   1.415       .  A
C9           C17   1.385       .  A
C10          C24   1.415       .  A
C10          C18   1.387       .  A
C11          C19   1.385       .  A
C11          C22   1.414       .  A
C12         N996   1.354       .  A
C12          C20   1.388       .  A
C12          C23   1.421       .  A
C13         C510   1.373   1_545  A
C13          H25   1.082       .  S
C14         C509   1.373       .  A
C14          H26   1.082       .  S
C15         C512   1.375   1_545  A
C15          H27   1.082       .  S
C16         C511   1.375       .  A
C16          H28   1.081       .  S
C17        C1010   1.376   1_455  A
C17          H29   1.082       .  S
C18        C1009   1.375       .  A
C18          H30   1.082       .  S
C19        C1012   1.374   1_455  A
C19          H31   1.082       .  S
C20        C1011   1.375       .  A
C20          H32   1.081       .  S
C21         C489   1.493       .  S
C22         C185   1.488       .  S
C23         C201   1.498       .  S
C24         C465   1.488       .  S
N35          C40   1.353   1_565  A
N35         C535   1.356       .  A
N35          H67   1.036       .  S
N36          C44   1.351   1_655  A
N36        C1035   1.353       .  A
N37          C41   1.354       .  A
N37         C538   1.355       .  A
N37          H68   1.033       .  S
N38          C45   1.353       .  A
N38        C1038   1.353       .  A
C39         N531   1.356       .  A
C39          C47   1.389       .  A
C39          C55   1.421       .  A
C40          C56   1.417       .  A
C40          C48   1.386       .  A
C41          C49   1.388       .  A
C41          C58   1.421       .  A
C42         N533   1.355   1_545  A
C42          C57   1.422       .  A
C42          C50   1.388       .  A
C43        N1028   1.354       .  A
C43          C55   1.418       .  A
C43          C51   1.387       .  A
C44          C58   1.416       .  A
C44          C52   1.387       .  A
C45          C53   1.386       .  A
C45          C56   1.413       .  A
C46        N1030   1.354   1_455  A
C46          C54   1.387       .  A
C46          C57   1.420       .  A
C47         C544   1.374       .  A
C47          H59   1.081       .  S
C48         C543   1.374   1_545  A
C48          H60   1.083       .  S
C49         C546   1.377       .  A
C49          H61   1.082       .  S
C50         C545   1.377   1_545  A
C50          H62   1.082       .  S
C51        C1044   1.372       .  A
C51          H63   1.082       .  S
C52        C1043   1.371   1_455  A
C52          H64   1.082       .  S
C53        C1046   1.372       .  A
C53          H65   1.082       .  S
C54        C1045   1.371   1_455  A
C54          H66   1.082       .  S
C55         C137   1.492       .  S
C56         C161   1.485       .  S
C57         C177   1.494       .  S
C58         C121   1.483       .  S
O69         Ni75   1.940       .  S
O69          C90   1.272       .  A
O70         Ni93   1.917       .  S
O70         C327   1.270       .  A
O71          H94   0.967       .  S
O71         Ni87   1.906       .  S
O71        Ni323   1.921       .  S
O71        Ni341   1.909       .  S
C72         C233   1.484       .  S
C72          O89   1.271       .  A
C72          O81   1.274       .  A
O73         Ni92   1.926       .  S
O73          C79   1.271       .  A
O74         Ni92   1.896       .  S
O74          C76   1.266       .  A
Ni75         O78   1.936       .  S
Ni75         O80   1.904       .  S
Ni75        O319   1.920       .  S
C76         C108   1.469       .  S
C76          O86   1.276       .  A
O77         Ni93   1.924       .  S
O77          C83   1.276       .  A
O78          C83   1.278       .  A
C79         C225   1.487       .  S
C79         O318   1.270       .  A
O80          C82   1.267       .  A
O81         Ni92   1.933       .  S
C82         C102   1.477       .  S
C82          O88   1.275       .  A
C83         C209   1.481       .  S
H84          O85   0.966       .  S
O85         Ni93   1.927       .  S
O85        Ni335   1.919       .  S
O85        Ni340   1.925   1_554  S
O86         Ni87   1.939       .  S
Ni87         O91   1.911       .  S
Ni87         O89   1.913       .  S
Ni87        O333   1.920       .  S
O88         Ni93   1.942       .  S
C90         C193   1.477       .  S
C90         O339   1.267   1_554  A
O91         C338   1.267       .  A
Ni92        O333   1.926       .  S
Ni93        O319   1.909       .  S
O95        Ni101   1.925       .  S
O95         C116   1.269       .  A
O96        Ni119   1.909       .  S
O96         C105   1.267       .  A
O97         H120   0.966       .  S
O97        Ni101   1.921       .  S
O97        Ni119   1.910       .  S
O97        Ni113   1.920       .  S
C98         C169   1.483       .  S
C98         O115   1.278       .  A
C98         O107   1.277       .  A
O99        Ni118   1.930       .  S
O99         C105   1.272       .  A
O100       Ni118   1.911       .  S
O100        C102   1.267       .  A
Ni101       O104   1.927       .  S
Ni101       O106   1.898       .  S
C102        O112   1.273       .  A
O103       Ni119   1.919       .  S
O103        C109   1.274       .  A
O104        C109   1.275       .  A
C105        C153   1.484       .  S
O106        C108   1.265       .  A
O107       Ni118   1.927       .  S
C108        O114   1.274       .  A
C109        C145   1.474       .  S
H110        O111   0.966       .  S
O111       Ni119   1.913       .  S
O111       Ni113   1.907       .  S
O111       Ni118   1.917       .  S
O112       Ni113   1.931       .  S
Ni113       O117   1.914       .  S
Ni113       O115   1.927       .  S
O114       Ni119   1.932       .  S
C116        C129   1.474       .  S
C116        O117   1.267       .  A
C121        C122   1.401       .  A
C121        C126   1.405       .  A
C122        C123   1.395       .  A
C122        H131   1.083       .  S
C123        C124   1.402       .  A
C123        H132   1.083       .  S
C124        C130   1.399       .  A
C124        C125   1.414       .  A
C125        C127   1.405       .  A
C125        C126   1.405       .  A
C126        H133   1.084       .  S
C127        C128   1.401       .  A
C127        H134   1.084       .  S
C128        C129   1.404       .  A
C128        H135   1.083       .  S
C129        C130   1.404       .  A
C130        H136   1.085       .  S
C137        C138   1.405       .  A
C137        C142   1.406       .  A
C138        C139   1.398       .  A
C138        H147   1.083       .  S
C139        C140   1.402       .  A
C139        H148   1.084       .  S
C140        C146   1.407       .  A
C140        C141   1.416       .  A
C141        C143   1.403       .  A
C141        C142   1.406       .  A
C142        H149   1.084       .  S
C143        C144   1.398       .  A
C143        H150   1.083       .  S
C144        C145   1.404       .  A
C144        H151   1.084       .  S
C145        C146   1.403       .  A
C146        H152   1.084       .  S
C153        C154   1.408       .  A
C153        C158   1.406       .  A
C154        C155   1.401       .  A
C154        H163   1.083       .  S
C155        C156   1.404       .  A
C155        H164   1.083       .  S
C156        C162   1.407       .  A
C156        C157   1.415       .  A
C157        C159   1.401       .  A
C157        C158   1.401       .  A
C158        H165   1.084       .  S
C159        C160   1.394       .  A
C159        H166   1.084       .  S
C160        C161   1.402       .  A
C160        H167   1.083       .  S
C161        C162   1.406       .  A
C162        H168   1.084       .  S
C169        C170   1.406       .  A
C169        C174   1.408       .  A
C170        C171   1.397       .  A
C170        H179   1.083       .  S
C171        C172   1.401       .  A
C171        H180   1.084       .  S
C172        C178   1.406       .  A
C172        C173   1.415       .  A
C173        C175   1.404       .  A
C173        C174   1.410       .  A
C174        H181   1.084       .  S
C175        C176   1.400       .  A
C175        H182   1.083       .  S
C176        C177   1.405       .  A
C176        H183   1.083       .  S
C177        C178   1.405       .  A
C178        H184   1.084       .  S
C185        C190   1.404   1_556  A
C185        C434   1.403       .  A
C186        C187   1.399       .  A
C186        C433   1.402       .  A
C186        H195   1.083       .  S
C187        C436   1.403       .  A
C187        H196   1.084       .  S
C188        C194   1.407       .  A
C188        C189   1.415   1_556  A
C188        C435   1.404       .  A
C189        C191   1.403       .  A
C189        C190   1.407       .  A
C190        H197   1.084       .  S
C191        C192   1.399       .  A
C191        H198   1.084       .  S
C192        C193   1.404       .  A
C192        H199   1.083       .  S
C193        C194   1.406   1_554  A
C194        H200   1.084       .  S
C201        C206   1.409   1_556  A
C201        C450   1.405       .  A
C202        C203   1.400       .  A
C202        C449   1.405       .  A
C202        H211   1.083       .  S
C203        C452   1.404       .  A
C203        H212   1.083       .  S
C204        C210   1.410       .  A
C204        C205   1.415   1_556  A
C204        C451   1.404       .  A
C205        C207   1.404       .  A
C205        C206   1.410       .  A
C206        H213   1.084       .  S
C207        C208   1.401       .  A
C207        H214   1.084       .  S
C208        C209   1.405       .  A
C208        H215   1.083       .  S
C209        C210   1.407   1_554  A
C210        H216   1.084       .  S
C217        C218   1.402       .  A
C217        C470   1.408       .  A
C217        C272   1.488       .  S
C218        C219   1.394       .  A
C218        H227   1.084       .  S
C219        C220   1.402       .  A
C219        H228   1.084       .  S
C220        C226   1.401       .  A
C220        C221   1.413       .  A
C221        C223   1.406       .  A
C221        C470   1.410       .  A
C222        C465   1.408   1_554  A
C222        C469   1.409       .  A
C222        H229   1.084       .  S
C223        C224   1.404       .  A
C223        H478   1.084       .  S
C224        C225   1.407       .  A
C224        H231   1.083       .  S
C225        C226   1.408       .  A
C226        H232   1.084       .  S
H230        C471   1.084       .  S
C233        C234   1.406       .  A
C233        C238   1.408       .  A
C234        C235   1.400       .  A
C234        H243   1.083       .  S
C235        C236   1.403       .  A
C235        H244   1.083       .  S
C236        C242   1.408       .  A
C236        C237   1.415       .  A
C237        C239   1.403       .  A
C237        C238   1.406       .  A
C238        H245   1.084       .  S
C239        C240   1.397       .  A
C239        H246   1.084       .  S
C240        C241   1.405       .  A
C240        H247   1.083       .  S
C241        C242   1.406       .  A
C241        C269   1.493       .  S
C242        H248   1.084       .  S
N249        C254   1.355       .  A
N249        C749   1.355       .  A
N249        H281   1.038       .  S
N250       C1249   1.354       .  A
N250        C258   1.352       .  A
N251        C752   1.358   1_545  A
N251        C255   1.355       .  A
N251        H282   1.036       .  S
N252        C259   1.352       .  A
N252       C1252   1.353   1_455  A
C253        N745   1.355       .  A
C253        C261   1.388       .  A
C253        C269   1.418       .  A
C254        C270   1.417       .  A
C254        C262   1.387       .  A
C255        C263   1.386       .  A
C255        C272   1.421       .  A
C256        N747   1.358       .  A
C256        C271   1.425       .  A
C256        C264   1.389       .  A
C257       N1242   1.353       .  A
C257        C269   1.415       .  A
C257        C265   1.385       .  A
C258        C272   1.415       .  A
C258        C266   1.387       .  A
C259        C267   1.385       .  A
C259        C270   1.414       .  A
C260       N1244   1.354       .  A
C260        C268   1.388       .  A
C260        C271   1.421       .  A
C261        C758   1.373   1_545  A
C261        H273   1.082       .  S
C262        C757   1.373       .  A
C262        H274   1.082       .  S
C263        C760   1.375   1_545  A
C263        H275   1.083       .  S
C264        C759   1.375       .  A
C264        H276   1.081       .  S
C265       C1258   1.375   1_455  A
C265        H277   1.082       .  S
C266       C1257   1.375       .  A
C266        H278   1.082       .  S
C267       C1260   1.374   1_455  A
C267        H279   1.082       .  S
C268       C1259   1.375       .  A
C268        H280   1.081       .  S
C270        C433   1.487       .  S
C271        C449   1.499       .  S
N283        C288   1.353   1_565  A
N283        C783   1.356       .  A
N283        H315   1.036       .  S
N284       C1283   1.353       .  A
N284        C292   1.351   1_655  A
N285        C786   1.355       .  A
N285        C289   1.354       .  A
N285        H316   1.034       .  S
N286        C293   1.352       .  A
N286       C1286   1.353       .  A
C287        N779   1.355       .  A
C287        C295   1.389       .  A
C287        C303   1.420       .  A
C288        C304   1.417       .  A
C288        C296   1.386       .  A
C289        C297   1.388       .  A
C289        C306   1.421       .  A
C290        N781   1.355   1_545  A
C290        C305   1.422       .  A
C290        C298   1.388       .  A
C291       N1276   1.354       .  A
C291        C303   1.418       .  A
C291        C299   1.387       .  A
C292        C306   1.415       .  A
C292        C300   1.387       .  A
C293        C301   1.386       .  A
C293        C304   1.413       .  A
C294       N1278   1.354   1_455  A
C294        C302   1.387       .  A
C294        C305   1.419       .  A
C295        C792   1.374       .  A
C295        H307   1.081       .  S
C296        C791   1.374   1_545  A
C296        H308   1.083       .  S
C297        C794   1.376       .  A
C297        H309   1.082       .  S
C298        C793   1.376   1_545  A
C298        H310   1.082       .  S
C299       C1292   1.372       .  A
C299        H311   1.082       .  S
C300       C1291   1.371   1_455  A
C300        H312   1.082       .  S
C301       C1294   1.372       .  A
C301        H313   1.082       .  S
C302       C1293   1.372   1_455  A
C302        H314   1.082       .  S
C303        C385   1.492       .  S
C304        C409   1.484       .  S
C305        C425   1.494       .  S
C306        C369   1.482       .  S
O317       Ni323   1.939       .  S
O317        C338   1.272       .  A
O318       Ni341   1.916       .  S
O319        H342   0.967   1_554  S
O319       Ni335   1.908       .  S
C320        C481   1.485       .  S
C320        O337   1.272   1_556  A
C320        O329   1.274       .  A
O321       Ni340   1.925       .  S
O321        C327   1.271   1_556  A
O322       Ni340   1.897       .  S
O322        C324   1.266       .  A
Ni323       O326   1.934       .  S
Ni323       O328   1.905       .  S
C324        C356   1.469       .  S
C324        O334   1.275       .  A
O325       Ni341   1.924       .  S
O325        C331   1.276       .  A
O326        C331   1.277       .  A
C327        C473   1.487   1_554  S
O328        C330   1.268       .  A
O329       Ni340   1.931       .  S
C330        C350   1.479       .  S
C330        O336   1.275       .  A
C331        C457   1.480       .  S
H332        O333   0.966       .  S
O333       Ni341   1.928       .  S
O334       Ni335   1.936   1_556  S
Ni335       O339   1.911   1_554  S
Ni335       O337   1.917       .  S
O336       Ni341   1.942       .  S
C338        C441   1.478       .  S
O343       Ni349   1.925       .  S
O343        C364   1.269       .  A
O344       Ni367   1.908       .  S
O344        C353   1.267       .  A
O345        H368   0.966       .  S
O345       Ni349   1.920       .  S
O345       Ni367   1.909       .  S
O345       Ni361   1.920       .  S
C346        C417   1.484       .  S
C346        O363   1.278       .  A
C346        O355   1.278       .  A
O347       Ni366   1.931       .  S
O347        C353   1.273       .  A
O348       Ni366   1.912       .  S
O348        C350   1.268       .  A
Ni349       O352   1.927       .  S
Ni349       O354   1.899       .  S
C350        O360   1.273       .  A
O351       Ni367   1.920       .  S
O351        C357   1.275       .  A
O352        C357   1.276       .  A
C353        C401   1.484       .  S
O354        C356   1.265       .  A
O355       Ni366   1.927       .  S
C356        O362   1.273       .  A
C357        C393   1.474       .  S
H358        O359   0.966       .  S
O359       Ni367   1.912       .  S
O359       Ni361   1.906       .  S
O359       Ni366   1.915       .  S
O360       Ni361   1.933       .  S
Ni361       O365   1.914       .  S
Ni361       O363   1.928       .  S
O362       Ni367   1.931       .  S
C364        C377   1.474       .  S
C364        O365   1.267       .  A
C369        C370   1.401       .  A
C369        C374   1.405       .  A
C370        C371   1.395       .  A
C370        H379   1.083       .  S
C371        C372   1.402       .  A
C371        H380   1.083       .  S
C372        C378   1.399       .  A
C372        C373   1.414       .  A
C373        C375   1.405       .  A
C373        C374   1.405       .  A
C374        H381   1.084       .  S
C375        C376   1.401       .  A
C375        H382   1.084       .  S
C376        C377   1.404       .  A
C376        H383   1.083       .  S
C377        C378   1.404       .  A
C378        H384   1.085       .  S
C385        C386   1.405       .  A
C385        C390   1.405       .  A
C386        C387   1.398       .  A
C386        H395   1.083       .  S
C387        C388   1.402       .  A
C387        H396   1.084       .  S
C388        C394   1.407       .  A
C388        C389   1.416       .  A
C389        C391   1.402       .  A
C389        C390   1.406       .  A
C390        H397   1.084       .  S
C391        C392   1.398       .  A
C391        H398   1.083       .  S
C392        C393   1.404       .  A
C392        H399   1.084       .  S
C393        C394   1.404       .  A
C394        H400   1.084       .  S
C401        C402   1.408       .  A
C401        C406   1.406       .  A
C402        C403   1.401       .  A
C402        H411   1.083       .  S
C403        C404   1.404       .  A
C403        H412   1.083       .  S
C404        C410   1.407       .  A
C404        C405   1.415       .  A
C405        C407   1.401       .  A
C405        C406   1.401       .  A
C406        H413   1.084       .  S
C407        C408   1.394       .  A
C407        H414   1.084       .  S
C408        C409   1.402       .  A
C408        H415   1.083       .  S
C409        C410   1.406       .  A
C410        H416   1.084       .  S
C417        C418   1.406       .  A
C417        C422   1.409       .  A
C418        C419   1.396       .  A
C418        H427   1.083       .  S
C419        C420   1.401       .  A
C419        H428   1.084       .  S
C420        C426   1.405       .  A
C420        C421   1.415       .  A
C421        C423   1.405       .  A
C421        C422   1.411       .  A
C422        H429   1.084       .  S
C423        C424   1.401       .  A
C423        H430   1.083       .  S
C424        C425   1.405       .  A
C424        H431   1.083       .  S
C425        C426   1.404       .  A
C426        H432   1.084       .  S
C433        C438   1.404       .  A
C434        C435   1.399       .  A
C434        H443   1.083       .  S
C435        H444   1.084       .  S
C436        C442   1.407       .  A
C436        C437   1.415       .  A
C437        C439   1.403       .  A
C437        C438   1.407       .  A
C438        H445   1.084       .  S
C439        C440   1.399       .  A
C439        H446   1.084       .  S
C440        C441   1.404       .  A
C440        H447   1.083       .  S
C441        C442   1.406       .  A
C442        H448   1.084       .  S
C449        C454   1.408       .  A
C450        C451   1.400       .  A
C450        H459   1.083       .  S
C451        H460   1.083       .  S
C452        C458   1.410       .  A
C452        C453   1.415       .  A
C453        C455   1.404       .  A
C453        C454   1.409       .  A
C454        H461   1.084       .  S
C455        C456   1.400       .  A
C455        H462   1.084       .  S
C456        C457   1.404       .  A
C456        H463   1.083       .  S
C457        C458   1.407       .  A
C458        H464   1.084       .  S
C465        C466   1.402       .  A
C466        C467   1.395       .  A
C466        H475   1.084       .  S
C467        C468   1.402       .  A
C467        H476   1.084       .  S
C468        C474   1.401       .  A
C468        C469   1.413   1_556  A
C469        C471   1.406       .  A
C470        H477   1.084       .  S
C471        C472   1.404       .  A
C472        C473   1.406   1_554  A
C472        H479   1.083       .  S
C473        C474   1.409       .  A
C474        H480   1.084       .  S
C481        C482   1.406   1_556  A
C481        C486   1.408       .  A
C482        C483   1.401       .  A
C482        H491   1.083       .  S
C483        C484   1.404   1_554  A
C483        H492   1.083       .  S
C484        C490   1.409       .  A
C484        C485   1.414       .  A
C485        C487   1.403       .  A
C485        C486   1.406       .  A
C486        H493   1.084       .  S
C487        C488   1.397       .  A
C487        H494   1.084       .  S
C488        C489   1.405       .  A
C488        H495   1.083       .  S
C489        C490   1.407       .  A
C490        H496   1.084   1_556  S
N497        C502   1.355   1_545  A
N497        H529   1.038       .  S
N498       C1497   1.354       .  A
N498        C506   1.352       .  A
N499        C503   1.355       .  A
N499        H530   1.036       .  S
N500        C507   1.353       .  A
N500       C1500   1.354   1_455  A
C501        C509   1.388       .  A
C501        C517   1.419       .  A
C502        C518   1.416       .  A
C502        C510   1.387       .  A
C503        C511   1.386   1_556  A
C503        C520   1.420       .  A
C504        C519   1.425       .  A
C504        C512   1.389   1_556  A
C505       N1490   1.353       .  A
C505        C517   1.415       .  A
C505        C513   1.385       .  A
C506        C520   1.415       .  A
C506        C514   1.387       .  A
C507        C515   1.385       .  A
C507        C518   1.415       .  A
C508       N1492   1.354       .  A
C508        C516   1.388       .  A
C508        C519   1.421       .  A
C509        H521   1.082       .  S
C510        H522   1.082       .  S
C511        H523   1.082       .  S
C512        H524   1.081       .  S
C513       C1506   1.376   1_455  A
C513        H525   1.082       .  S
C514       C1505   1.375       .  A
C514        H526   1.082       .  S
C515       C1508   1.374   1_455  A
C515        H527   1.082       .  S
C516       C1507   1.375       .  A
C516        H528   1.081       .  S
C517        C985   1.493       .  S
C518        C681   1.489       .  S
C519        C697   1.498       .  S
C520        C961   1.488       .  S
N531        C536   1.353       .  A
N531        H563   1.036       .  S
N532       C1531   1.353       .  A
N532        C540   1.351   1_655  A
N533        C537   1.354       .  A
N533        H564   1.033       .  S
N534        C541   1.353       .  A
N534       C1534   1.353       .  A
C535        C543   1.389       .  A
C535        C551   1.421       .  A
C536        C552   1.417       .  A
C536        C544   1.386       .  A
C537        C545   1.388       .  A
C537        C554   1.421       .  A
C538        C553   1.422       .  A
C538        C546   1.388       .  A
C539       N1524   1.354       .  A
C539        C551   1.418       .  A
C539        C547   1.387       .  A
C540        C554   1.416       .  A
C540        C548   1.387       .  A
C541        C549   1.386       .  A
C541        C552   1.414       .  A
C542       N1526   1.354   1_455  A
C542        C550   1.387       .  A
C542        C553   1.420       .  A
C543        H555   1.081       .  S
C544        H556   1.083       .  S
C545        H557   1.082       .  S
C546        H558   1.082       .  S
C547       C1540   1.372       .  A
C547        H559   1.082       .  S
C548       C1539   1.371   1_455  A
C548        H560   1.082       .  S
C549       C1542   1.372       .  A
C549        H561   1.082       .  S
C550       C1541   1.372   1_455  A
C550        H562   1.082       .  S
C551        C633   1.492       .  S
C552        C657   1.485       .  S
C553        C673   1.494       .  S
C554        C617   1.482       .  S
O565       Ni571   1.940       .  S
O565        C586   1.272       .  A
O566       Ni589   1.918       .  S
O566        C823   1.270       .  A
O567        H590   0.967       .  S
O567       Ni819   1.921       .  S
O567       Ni837   1.909       .  S
O567       Ni583   1.906       .  S
C568        C729   1.484       .  S
C568        O585   1.271       .  A
C568        O577   1.274       .  A
O569       Ni588   1.926       .  S
O569        C575   1.271       .  A
O570       Ni588   1.897       .  S
O570        C572   1.266       .  A
Ni571       O574   1.936       .  S
Ni571       O576   1.904       .  S
Ni571       O815   1.920       .  S
C572        C604   1.469       .  S
C572        O582   1.276       .  A
O573       Ni589   1.925       .  S
O573        C579   1.276       .  A
O574        C579   1.278       .  A
C575        C721   1.487       .  S
C575        O814   1.270       .  A
O576        C578   1.267       .  A
O577       Ni588   1.932       .  S
C578        C598   1.477       .  S
C578        O584   1.275       .  A
C579        C705   1.481       .  S
H580        O581   0.966       .  S
O581       Ni589   1.927       .  S
O581       Ni831   1.919       .  S
O581       Ni836   1.925   1_554  S
O582       Ni583   1.939       .  S
Ni583       O587   1.911       .  S
Ni583       O585   1.913       .  S
Ni583       O829   1.920       .  S
O584       Ni589   1.942       .  S
C586        C689   1.478       .  S
C586        O835   1.267   1_554  A
O587        C834   1.267       .  A
Ni588       O829   1.926       .  S
Ni589       O815   1.909       .  S
O591       Ni597   1.925       .  S
O591        C612   1.269       .  A
O592       Ni615   1.909       .  S
O592        C601   1.267       .  A
O593        H616   0.966       .  S
O593       Ni597   1.921       .  S
O593       Ni615   1.910       .  S
O593       Ni609   1.920       .  S
C594        C665   1.483       .  S
C594        O611   1.278       .  A
C594        O603   1.277       .  A
O595       Ni614   1.930       .  S
O595        C601   1.272       .  A
O596       Ni614   1.911       .  S
O596        C598   1.267       .  A
Ni597       O600   1.927       .  S
Ni597       O602   1.898       .  S
C598        O608   1.273       .  A
O599       Ni615   1.919       .  S
O599        C605   1.274       .  A
O600        C605   1.275       .  A
C601        C649   1.484       .  S
O602        C604   1.265       .  A
O603       Ni614   1.927       .  S
C604        O610   1.274       .  A
C605        C641   1.474       .  S
H606        O607   0.966       .  S
O607       Ni615   1.913       .  S
O607       Ni609   1.907       .  S
O607       Ni614   1.917       .  S
O608       Ni609   1.931       .  S
Ni609       O613   1.914       .  S
Ni609       O611   1.927       .  S
O610       Ni615   1.933       .  S
C612        C625   1.474       .  S
C612        O613   1.267       .  A
C617        C618   1.401       .  A
C617        C622   1.405       .  A
C618        C619   1.395       .  A
C618        H627   1.083       .  S
C619        C620   1.402       .  A
C619        H628   1.083       .  S
C620        C626   1.399       .  A
C620        C621   1.414       .  A
C621        C623   1.405       .  A
C621        C622   1.405       .  A
C622        H629   1.084       .  S
C623        C624   1.401       .  A
C623        H630   1.084       .  S
C624        C625   1.404       .  A
C624        H631   1.083       .  S
C625        C626   1.404       .  A
C626        H632   1.085       .  S
C633        C634   1.405       .  A
C633        C638   1.406       .  A
C634        C635   1.398       .  A
C634        H643   1.083       .  S
C635        C636   1.402       .  A
C635        H644   1.084       .  S
C636        C642   1.407       .  A
C636        C637   1.416       .  A
C637        C639   1.403       .  A
C637        C638   1.406       .  A
C638        H645   1.084       .  S
C639        C640   1.398       .  A
C639        H646   1.083       .  S
C640        C641   1.404       .  A
C640        H647   1.084       .  S
C641        C642   1.403       .  A
C642        H648   1.084       .  S
C649        C650   1.408       .  A
C649        C654   1.406       .  A
C650        C651   1.401       .  A
C650        H659   1.083       .  S
C651        C652   1.404       .  A
C651        H660   1.083       .  S
C652        C658   1.407       .  A
C652        C653   1.415       .  A
C653        C655   1.401       .  A
C653        C654   1.401       .  A
C654        H661   1.084       .  S
C655        C656   1.394       .  A
C655        H662   1.084       .  S
C656        C657   1.402       .  A
C656        H663   1.083       .  S
C657        C658   1.406       .  A
C658        H664   1.084       .  S
C665        C666   1.406       .  A
C665        C670   1.408       .  A
C666        C667   1.397       .  A
C666        H675   1.083       .  S
C667        C668   1.401       .  A
C667        H676   1.084       .  S
C668        C674   1.406       .  A
C668        C669   1.415       .  A
C669        C671   1.404       .  A
C669        C670   1.410       .  A
C670        H677   1.084       .  S
C671        C672   1.401       .  A
C671        H678   1.083       .  S
C672        C673   1.405       .  A
C672        H679   1.083       .  S
C673        C674   1.405       .  A
C674        H680   1.084       .  S
C681        C930   1.403       .  A
C681        C686   1.404   1_556  A
C682        C929   1.402       .  A
C682        C683   1.399       .  A
C682        H691   1.083       .  S
C683        C932   1.403       .  A
C683        H692   1.084       .  S
C684        C931   1.404       .  A
C684        C690   1.407       .  A
C684        C685   1.415   1_556  A
C685        C687   1.403       .  A
C685        C686   1.407       .  A
C686        H693   1.084       .  S
C687        C688   1.399       .  A
C687        H694   1.084       .  S
C688        C689   1.404       .  A
C688        H695   1.083       .  S
C689        C690   1.406   1_554  A
C690        H696   1.084       .  S
C697        C946   1.405       .  A
C697        C702   1.409   1_556  A
C698        C945   1.405       .  A
C698        C699   1.400       .  A
C698        H707   1.083       .  S
C699        C948   1.404       .  A
C699        H708   1.083       .  S
C700        C947   1.404       .  A
C700        C706   1.410       .  A
C700        C701   1.415   1_556  A
C701        C703   1.404       .  A
C701        C702   1.410       .  A
C702        H709   1.084       .  S
C703        C704   1.401       .  A
C703        H710   1.084       .  S
C704        C705   1.405       .  A
C704        H711   1.083       .  S
C705        C706   1.407   1_554  A
C706        H712   1.084       .  S
C713        C714   1.402       .  A
C713        C966   1.408       .  A
C713        C768   1.488       .  S
C714        C715   1.394       .  A
C714        H723   1.084       .  S
C715        C716   1.402       .  A
C715        H724   1.084       .  S
C716        C722   1.401       .  A
C716        C717   1.414       .  A
C717        C719   1.406       .  A
C717        C966   1.410       .  A
C718        C961   1.408   1_554  A
C718        C965   1.409       .  A
C718        H725   1.084       .  S
C719        C720   1.404       .  A
C719        H974   1.084       .  S
C720        C721   1.407       .  A
C720        H727   1.083       .  S
C721        C722   1.408       .  A
C722        H728   1.084       .  S
H726        C967   1.084       .  S
C729        C730   1.406       .  A
C729        C734   1.408       .  A
C730        C731   1.400       .  A
C730        H739   1.083       .  S
C731        C732   1.403       .  A
C731        H740   1.083       .  S
C732        C738   1.408       .  A
C732        C733   1.415       .  A
C733        C735   1.403       .  A
C733        C734   1.406       .  A
C734        H741   1.084       .  S
C735        C736   1.397       .  A
C735        H742   1.084       .  S
C736        C737   1.405       .  A
C736        H743   1.083       .  S
C737        C738   1.407       .  A
C737        C765   1.493       .  S
C738        H744   1.084       .  S
N745        C750   1.355   1_545  A
N745        H777   1.038       .  S
N746       C1745   1.354       .  A
N746        C754   1.352       .  A
N747        C751   1.355       .  A
N747        H778   1.036       .  S
N748        C755   1.352       .  A
N748       C1748   1.353   1_455  A
C749        C757   1.388       .  A
C749        C765   1.418       .  A
C750        C766   1.417       .  A
C750        C758   1.387       .  A
C751        C759   1.386       .  A
C751        C768   1.421       .  A
C752        C767   1.425       .  A
C752        C760   1.389       .  A
C753       N1738   1.353       .  A
C753        C765   1.415       .  A
C753        C761   1.385       .  A
C754        C768   1.415       .  A
C754        C762   1.387       .  A
C755        C763   1.385       .  A
C755        C766   1.414       .  A
C756       N1740   1.354       .  A
C756        C764   1.388       .  A
C756        C767   1.421       .  A
C757        H769   1.082       .  S
C758        H770   1.082       .  S
C759        H771   1.083       .  S
C760        H772   1.081       .  S
C761       C1754   1.375   1_455  A
C761        H773   1.082       .  S
C762       C1753   1.375       .  A
C762        H774   1.082       .  S
C763       C1756   1.374   1_455  A
C763        H775   1.082       .  S
C764       C1755   1.375       .  A
C764        H776   1.081       .  S
C766        C929   1.488       .  S
C767        C945   1.499       .  S
N779        C784   1.353       .  A
N779        H811   1.036       .  S
N780       C1779   1.353       .  A
N780        C788   1.351   1_655  A
N781        C785   1.354       .  A
N781        H812   1.034       .  S
N782        C789   1.352       .  A
N782       C1782   1.353       .  A
C783        C791   1.389       .  A
C783        C799   1.421       .  A
C784        C800   1.417       .  A
C784        C792   1.386       .  A
C785        C793   1.388       .  A
C785        C802   1.421       .  A
C786        C801   1.421       .  A
C786        C794   1.388       .  A
C787       N1772   1.354       .  A
C787        C799   1.418       .  A
C787        C795   1.387       .  A
C788        C802   1.415       .  A
C788        C796   1.387       .  A
C789        C797   1.386       .  A
C789        C800   1.413       .  A
C790       N1774   1.354   1_455  A
C790        C798   1.387       .  A
C790        C801   1.419       .  A
C791        H803   1.081       .  S
C792        H804   1.083       .  S
C793        H805   1.082       .  S
C794        H806   1.082       .  S
C795       C1788   1.372       .  A
C795        H807   1.082       .  S
C796       C1787   1.371   1_455  A
C796        H808   1.082       .  S
C797       C1790   1.372       .  A
C797        H809   1.082       .  S
C798       C1789   1.372   1_455  A
C798        H810   1.082       .  S
C799        C881   1.492       .  S
C800        C905   1.485       .  S
C801        C921   1.493       .  S
C802        C865   1.482       .  S
O813       Ni819   1.939       .  S
O813        C834   1.272       .  A
O814       Ni837   1.915       .  S
O815        H838   0.967   1_554  S
O815       Ni831   1.908       .  S
C816        C977   1.485       .  S
C816        O833   1.272   1_556  A
C816        O825   1.274       .  A
O817       Ni836   1.926       .  S
O817        C823   1.271   1_556  A
O818       Ni836   1.897       .  S
O818        C820   1.266       .  A
Ni819       O822   1.934       .  S
Ni819       O824   1.905       .  S
C820        C852   1.469       .  S
C820        O830   1.275       .  A
O821       Ni837   1.924       .  S
O821        C827   1.276       .  A
O822        C827   1.277       .  A
C823        C969   1.487   1_554  S
O824        C826   1.268       .  A
O825       Ni836   1.931       .  S
C826        C846   1.479       .  S
C826        O832   1.275       .  A
C827        C953   1.481       .  S
H828        O829   0.966       .  S
O829       Ni837   1.928       .  S
O830       Ni831   1.936   1_556  S
Ni831       O835   1.911   1_554  S
Ni831       O833   1.917       .  S
O832       Ni837   1.942       .  S
C834        C937   1.478       .  S
O839       Ni845   1.925       .  S
O839        C860   1.269       .  A
O840       Ni863   1.909       .  S
O840        C849   1.268       .  A
O841        H864   0.966       .  S
O841       Ni845   1.920       .  S
O841       Ni863   1.909       .  S
O841       Ni857   1.920       .  S
C842        C913   1.484       .  S
C842        O859   1.278       .  A
C842        O851   1.278       .  A
O843       Ni862   1.931       .  S
O843        C849   1.272       .  A
O844       Ni862   1.912       .  S
O844        C846   1.268       .  A
Ni845       O848   1.927       .  S
Ni845       O850   1.898       .  S
C846        O856   1.273       .  A
O847       Ni863   1.920       .  S
O847        C853   1.275       .  A
O848        C853   1.276       .  A
C849        C897   1.484       .  S
O850        C852   1.265       .  A
O851       Ni862   1.927       .  S
C852        O858   1.273       .  A
C853        C889   1.474       .  S
H854        O855   0.966       .  S
O855       Ni863   1.912       .  S
O855       Ni857   1.906       .  S
O855       Ni862   1.915       .  S
O856       Ni857   1.933       .  S
Ni857       O861   1.914       .  S
Ni857       O859   1.928       .  S
O858       Ni863   1.932       .  S
C860        C873   1.474       .  S
C860        O861   1.267       .  A
C865        C866   1.401       .  A
C865        C870   1.405       .  A
C866        C867   1.395       .  A
C866        H875   1.083       .  S
C867        C868   1.402       .  A
C867        H876   1.083       .  S
C868        C874   1.399       .  A
C868        C869   1.414       .  A
C869        C871   1.405       .  A
C869        C870   1.404       .  A
C870        H877   1.084       .  S
C871        C872   1.401       .  A
C871        H878   1.084       .  S
C872        C873   1.404       .  A
C872        H879   1.083       .  S
C873        C874   1.404       .  A
C874        H880   1.085       .  S
C881        C882   1.405       .  A
C881        C886   1.405       .  A
C882        C883   1.398       .  A
C882        H891   1.083       .  S
C883        C884   1.402       .  A
C883        H892   1.084       .  S
C884        C890   1.407       .  A
C884        C885   1.416       .  A
C885        C887   1.402       .  A
C885        C886   1.406       .  A
C886        H893   1.084       .  S
C887        C888   1.398       .  A
C887        H894   1.083       .  S
C888        C889   1.404       .  A
C888        H895   1.084       .  S
C889        C890   1.404       .  A
C890        H896   1.084       .  S
C897        C898   1.408       .  A
C897        C902   1.406       .  A
C898        C899   1.401       .  A
C898        H907   1.083       .  S
C899        C900   1.404       .  A
C899        H908   1.083       .  S
C900        C906   1.407       .  A
C900        C901   1.415       .  A
C901        C903   1.401       .  A
C901        C902   1.401       .  A
C902        H909   1.084       .  S
C903        C904   1.394       .  A
C903        H910   1.084       .  S
C904        C905   1.402       .  A
C904        H911   1.083       .  S
C905        C906   1.406       .  A
C906        H912   1.084       .  S
C913        C914   1.406       .  A
C913        C918   1.409       .  A
C914        C915   1.396       .  A
C914        H923   1.083       .  S
C915        C916   1.401       .  A
C915        H924   1.084       .  S
C916        C922   1.405       .  A
C916        C917   1.415       .  A
C917        C919   1.405       .  A
C917        C918   1.411       .  A
C918        H925   1.084       .  S
C919        C920   1.401       .  A
C919        H926   1.083       .  S
C920        C921   1.405       .  A
C920        H927   1.083       .  S
C921        C922   1.404       .  A
C922        H928   1.084       .  S
C929        C934   1.405       .  A
C930        C931   1.399       .  A
C930        H939   1.083       .  S
C931        H940   1.084       .  S
C932        C938   1.407       .  A
C932        C933   1.415       .  A
C933        C935   1.403       .  A
C933        C934   1.407       .  A
C934        H941   1.084       .  S
C935        C936   1.399       .  A
C935        H942   1.084       .  S
C936        C937   1.404       .  A
C936        H943   1.083       .  S
C937        C938   1.406       .  A
C938        H944   1.084       .  S
C945        C950   1.408       .  A
C946        C947   1.400       .  A
C946        H955   1.083       .  S
C947        H956   1.083       .  S
C948        C954   1.410       .  A
C948        C949   1.415       .  A
C949        C951   1.404       .  A
C949        C950   1.409       .  A
C950        H957   1.084       .  S
C951        C952   1.400       .  A
C951        H958   1.084       .  S
C952        C953   1.404       .  A
C952        H959   1.083       .  S
C953        C954   1.407       .  A
C954        H960   1.084       .  S
C961        C962   1.402       .  A
C962        C963   1.395       .  A
C962        H971   1.084       .  S
C963        C964   1.402       .  A
C963        H972   1.084       .  S
C964        C970   1.401       .  A
C964        C965   1.413   1_556  A
C965        C967   1.406       .  A
C966        H973   1.084       .  S
C967        C968   1.404       .  A
C968        C969   1.406   1_554  A
C968        H975   1.083       .  S
C969        C970   1.409       .  A
C970        H976   1.084       .  S
C977        C978   1.406   1_556  A
C977        C982   1.408       .  A
C978        C979   1.401       .  A
C978        H987   1.083       .  S
C979        C980   1.404   1_554  A
C979        H988   1.083       .  S
C980        C986   1.409       .  A
C980        C981   1.414       .  A
C981        C983   1.403       .  A
C981        C982   1.406       .  A
C982        H989   1.084       .  S
C983        C984   1.397       .  A
C983        H990   1.084       .  S
C984        C985   1.405       .  A
C984        H991   1.083       .  S
C985        C986   1.407       .  A
C986        H992   1.084   1_556  S
N993        C998   1.355       .  A
N993       C1493   1.355       .  A
N993       H1025   1.039       .  S
N994       C1002   1.353   1_455  A
N995       C1496   1.358   1_545  A
N995        C999   1.356       .  A
N995       H1026   1.036       .  S
N996       C1003   1.353       .  A
C997       N1489   1.355       .  A
C997       C1005   1.388       .  A
C997       C1013   1.419       .  A
C998       C1014   1.417       .  A
C998       C1006   1.387       .  A
C999       C1007   1.387       .  A
C999       C1016   1.422       .  A
C1000      N1491   1.358       .  A
C1000      C1015   1.425       .  A
C1000      C1008   1.389       .  A
C1001      C1013   1.414       .  A
C1001      C1009   1.385       .  A
C1002      C1016   1.416       .  A
C1002      C1010   1.387       .  A
C1003      C1011   1.384       .  A
C1003      C1014   1.415       .  A
C1004      C1012   1.388       .  A
C1004      C1015   1.421       .  A
C1005      C1502   1.374   1_545  A
C1005      H1017   1.082       .  S
C1006      C1501   1.374       .  A
C1006      H1018   1.082       .  S
C1007      C1504   1.373   1_545  A
C1007      H1019   1.082   1_556  S
C1008      C1503   1.373       .  A
C1008      H1020   1.080   1_556  S
C1009      H1021   1.082       .  S
C1010      H1022   1.082       .  S
C1011      H1023   1.082       .  S
C1012      H1024   1.081       .  S
C1013      C1481   1.494       .  S
C1014      C1177   1.490       .  S
C1015      C1193   1.498       .  S
C1016      C1457   1.492       .  S
N1027      C1032   1.353   1_565  A
N1027      C1527   1.356       .  A
N1027      H1059   1.033       .  S
N1028      C1036   1.352       .  A
N1029      C1530   1.356       .  A
N1029      C1033   1.355       .  A
N1029      H1060   1.036       .  S
N1030      C1037   1.354       .  A
C1031      N1523   1.356       .  A
C1031      C1039   1.388       .  A
C1031      C1047   1.421       .  A
C1032      C1048   1.419       .  A
C1032      C1040   1.387       .  A
C1033      C1041   1.388       .  A
C1033      C1050   1.421       .  A
C1034      N1525   1.356   1_545  A
C1034      C1049   1.421       .  A
C1034      C1042   1.387       .  A
C1035      C1047   1.417       .  A
C1035      C1043   1.387       .  A
C1036      C1050   1.416       .  A
C1036      C1044   1.386       .  A
C1037      C1045   1.385       .  A
C1037      C1048   1.417       .  A
C1038      C1046   1.387       .  A
C1038      C1049   1.417       .  A
C1039      C1536   1.373       .  A
C1039      H1051   1.081       .  S
C1040      C1535   1.373   1_545  A
C1040      H1052   1.082       .  S
C1041      C1538   1.376       .  A
C1041      H1053   1.082       .  S
C1042      C1537   1.376   1_545  A
C1042      H1054   1.082       .  S
C1043      H1055   1.082       .  S
C1044      H1056   1.082       .  S
C1045      H1057   1.082       .  S
C1046      H1058   1.082       .  S
C1047      C1129   1.490       .  S
C1048      C1153   1.488       .  S
C1049      C1169   1.494       .  S
C1050      C1113   1.487       .  S
O1061     Ni1067   1.941       .  S
O1061      C1082   1.272       .  A
O1062     Ni1085   1.920       .  S
O1062      C1319   1.271   1_554  A
O1063      H1086   0.967       .  S
O1063     Ni1315   1.921       .  S
O1063     Ni1333   1.910       .  S
O1063     Ni1079   1.905       .  S
C1064      C1225   1.486       .  S
C1064      O1081   1.270       .  A
C1064      O1073   1.273       .  A
O1065     Ni1084   1.925       .  S
O1065      C1071   1.271       .  A
O1066     Ni1084   1.900       .  S
O1066      C1068   1.267       .  A
Ni1067     O1070   1.933       .  S
Ni1067     O1072   1.906       .  S
Ni1067     O1311   1.920       .  S
C1068      C1100   1.472       .  S
C1068      O1078   1.277       .  A
O1069     Ni1085   1.926       .  S
O1069      C1075   1.276       .  A
O1070      C1075   1.277       .  A
C1071      C1217   1.490       .  S
C1071      O1310   1.270       .  A
O1072      C1074   1.268       .  A
O1073     Ni1084   1.932       .  S
C1074      C1094   1.480       .  S
C1074      O1080   1.276       .  A
C1075      C1201   1.482       .  S
H1076      O1077   0.966       .  S
O1077     Ni1085   1.932       .  S
O1077     Ni1327   1.922       .  S
O1077     Ni1332   1.929   1_554  S
O1078     Ni1079   1.940       .  S
Ni1079     O1083   1.911       .  S
Ni1079     O1081   1.913       .  S
Ni1079     O1325   1.922       .  S
O1080     Ni1085   1.945       .  S
C1082      C1185   1.477       .  S
C1082      O1331   1.266   1_554  A
O1083      C1330   1.267       .  A
Ni1084     O1325   1.929       .  S
Ni1085     O1311   1.910       .  S
O1087     Ni1093   1.926       .  S
O1087      C1108   1.269       .  A
O1088     Ni1111   1.910       .  S
O1088      C1097   1.268       .  A
O1089      H1112   0.966       .  S
O1089     Ni1093   1.920       .  S
O1089     Ni1111   1.910       .  S
O1089     Ni1105   1.920       .  S
C1090      C1161   1.485       .  S
C1090      O1107   1.279       .  A
C1090      O1099   1.277       .  A
O1091     Ni1110   1.934       .  S
O1091      C1097   1.273       .  A
O1092     Ni1110   1.914       .  S
O1092      C1094   1.269       .  A
Ni1093     O1096   1.928       .  S
Ni1093     O1098   1.900       .  S
C1094      O1104   1.274       .  A
O1095     Ni1111   1.920       .  S
O1095      C1101   1.275       .  A
O1096      C1101   1.276       .  A
C1097      C1145   1.487       .  S
O1098      C1100   1.265       .  A
O1099     Ni1110   1.926       .  S
C1100      O1106   1.274       .  A
C1101      C1137   1.474       .  S
H1102      O1103   0.966       .  S
O1103     Ni1111   1.913       .  S
O1103     Ni1105   1.911       .  S
O1103     Ni1110   1.918       .  S
O1104     Ni1105   1.934       .  S
Ni1105     O1109   1.922       .  S
Ni1105     O1107   1.928       .  S
O1106     Ni1111   1.935       .  S
C1108      C1121   1.482       .  S
C1108      O1109   1.270       .  A
C1113      C1114   1.402       .  A
C1113      C1118   1.407       .  A
C1114      C1115   1.396       .  A
C1114      H1123   1.083       .  S
C1115      C1116   1.403       .  A
C1115      H1124   1.083       .  S
C1116      C1122   1.402       .  A
C1116      C1117   1.414       .  A
C1117      C1119   1.406       .  A
C1117      C1118   1.408       .  A
C1118      H1125   1.084       .  S
C1119      C1120   1.403       .  A
C1119      H1126   1.084       .  S
C1120      C1121   1.405       .  A
C1120      H1127   1.083       .  S
C1121      C1122   1.407       .  A
C1122      H1128   1.085       .  S
C1129      C1130   1.404       .  A
C1129      C1134   1.405       .  A
C1130      C1131   1.398       .  A
C1130      H1139   1.083       .  S
C1131      C1132   1.403       .  A
C1131      H1140   1.084       .  S
C1132      C1138   1.407       .  A
C1132      C1133   1.416       .  A
C1133      C1135   1.403       .  A
C1133      C1134   1.405       .  A
C1134      H1141   1.084       .  S
C1135      C1136   1.398       .  A
C1135      H1142   1.083       .  S
C1136      C1137   1.404       .  A
C1136      H1143   1.084       .  S
C1137      C1138   1.404       .  A
C1138      H1144   1.084       .  S
C1145      C1146   1.408       .  A
C1145      C1150   1.407       .  A
C1146      C1147   1.400       .  A
C1146      H1155   1.083       .  S
C1147      C1148   1.403       .  A
C1147      H1156   1.083       .  S
C1148      C1154   1.408       .  A
C1148      C1149   1.415       .  A
C1149      C1151   1.402       .  A
C1149      C1150   1.404       .  A
C1150      H1157   1.084       .  S
C1151      C1152   1.395       .  A
C1151      H1158   1.084       .  S
C1152      C1153   1.403       .  A
C1152      H1159   1.083       .  S
C1153      C1154   1.405       .  A
C1154      H1160   1.084       .  S
C1161      C1162   1.407       .  A
C1161      C1166   1.408       .  A
C1162      C1163   1.397       .  A
C1162      H1171   1.083       .  S
C1163      C1164   1.401       .  A
C1163      H1172   1.084       .  S
C1164      C1170   1.406       .  A
C1164      C1165   1.415       .  A
C1165      C1167   1.403       .  A
C1165      C1166   1.409       .  A
C1166      H1173   1.084       .  S
C1167      C1168   1.399       .  A
C1167      H1174   1.083       .  S
C1168      C1169   1.406       .  A
C1168      H1175   1.083       .  S
C1169      C1170   1.405       .  A
C1170      H1176   1.084       .  S
C1177      C1426   1.404       .  A
C1177      C1182   1.405   1_556  A
C1178      C1425   1.403       .  A
C1178      C1179   1.400       .  A
C1178      H1187   1.083       .  S
C1179      C1428   1.404       .  A
C1179      H1188   1.084       .  S
C1180      C1427   1.404       .  A
C1180      C1186   1.408       .  A
C1180      C1181   1.415   1_556  A
C1181      C1183   1.404       .  A
C1181      C1182   1.407       .  A
C1182      H1189   1.084       .  S
C1183      C1184   1.399       .  A
C1183      H1190   1.084       .  S
C1184      C1185   1.403       .  A
C1184      H1191   1.083       .  S
C1185      C1186   1.406   1_554  A
C1186      H1192   1.084       .  S
C1193      C1442   1.406       .  A
C1193      C1198   1.406   1_556  A
C1194      C1441   1.406       .  A
C1194      C1195   1.402       .  A
C1194      H1203   1.083       .  S
C1195      C1444   1.405       .  A
C1195      H1204   1.083       .  S
C1196      C1443   1.405       .  A
C1196      C1202   1.412       .  A
C1196      C1197   1.415   1_556  A
C1197      C1199   1.402       .  A
C1197      C1198   1.407       .  A
C1198      H1205   1.084       .  S
C1199      C1200   1.398       .  A
C1199      H1206   1.084       .  S
C1200      C1201   1.405       .  A
C1200      H1207   1.083       .  S
C1201      C1202   1.409   1_554  A
C1202      H1208   1.084       .  S
C1209      C1210   1.403       .  A
C1209      C1462   1.410       .  A
C1209      C1264   1.492       .  S
C1210      C1211   1.393       .  A
C1210      H1219   1.084       .  S
C1211      C1212   1.401       .  A
C1211      H1220   1.084       .  S
C1212      C1218   1.401       .  A
C1212      C1213   1.413       .  A
C1213      C1215   1.407       .  A
C1213      C1462   1.411       .  A
C1214      C1457   1.410       .  A
C1214      C1461   1.412       .  A
C1214      H1221   1.084   1_556  S
C1215      C1216   1.405       .  A
C1215      H1470   1.083       .  S
C1216      C1217   1.407       .  A
C1216      H1223   1.083       .  S
C1217      C1218   1.409       .  A
C1218      H1224   1.084       .  S
H1222      C1463   1.083       .  S
C1225      C1226   1.406       .  A
C1225      C1230   1.408       .  A
C1226      C1227   1.401       .  A
C1226      H1235   1.083       .  S
C1227      C1228   1.404       .  A
C1227      H1236   1.083       .  S
C1228      C1234   1.409       .  A
C1228      C1229   1.414       .  A
C1229      C1231   1.403       .  A
C1229      C1230   1.406       .  A
C1230      H1237   1.084       .  S
C1231      C1232   1.397       .  A
C1231      H1238   1.084       .  S
C1232      C1233   1.405       .  A
C1232      H1239   1.084       .  S
C1233      C1234   1.408       .  A
C1233      C1261   1.495       .  S
C1234      H1240   1.084       .  S
N1241      C1246   1.355       .  A
N1241      C1741   1.355       .  A
N1241      H1273   1.039       .  S
N1242      C1250   1.353   1_455  A
N1243      C1744   1.358   1_545  A
N1243      C1247   1.355       .  A
N1243      H1274   1.037       .  S
N1244      C1251   1.353       .  A
C1245      N1737   1.355       .  A
C1245      C1253   1.387       .  A
C1245      C1261   1.419       .  A
C1246      C1262   1.417       .  A
C1246      C1254   1.387       .  A
C1247      C1255   1.386       .  A
C1247      C1264   1.422       .  A
C1248      N1739   1.358       .  A
C1248      C1263   1.425       .  A
C1248      C1256   1.389       .  A
C1249      C1261   1.414       .  A
C1249      C1257   1.385       .  A
C1250      C1264   1.416       .  A
C1250      C1258   1.387       .  A
C1251      C1259   1.384       .  A
C1251      C1262   1.415       .  A
C1252      C1260   1.388       .  A
C1252      C1263   1.420       .  A
C1253      C1750   1.374   1_545  A
C1253      H1265   1.082       .  S
C1254      C1749   1.374       .  A
C1254      H1266   1.082       .  S
C1255      C1752   1.373   1_545  A
C1255      H1267   1.082       .  S
C1256      C1751   1.373       .  A
C1256      H1268   1.080       .  S
C1257      H1269   1.082       .  S
C1258      H1270   1.082       .  S
C1259      H1271   1.082       .  S
C1260      H1272   1.081       .  S
C1262      C1425   1.490       .  S
C1263      C1441   1.498       .  S
N1275      C1280   1.353   1_565  A
N1275      C1775   1.356       .  A
N1275      H1307   1.033       .  S
N1276      C1284   1.352       .  A
N1277      C1778   1.356       .  A
N1277      C1281   1.355       .  A
N1277      H1308   1.036       .  S
N1278      C1285   1.354       .  A
C1279      N1771   1.356       .  A
C1279      C1287   1.388       .  A
C1279      C1295   1.421       .  A
C1280      C1296   1.419       .  A
C1280      C1288   1.387       .  A
C1281      C1289   1.388       .  A
C1281      C1298   1.421       .  A
C1282      N1773   1.356   1_545  A
C1282      C1297   1.421       .  A
C1282      C1290   1.387       .  A
C1283      C1295   1.417       .  A
C1283      C1291   1.387       .  A
C1284      C1298   1.416       .  A
C1284      C1292   1.386       .  A
C1285      C1293   1.385       .  A
C1285      C1296   1.417       .  A
C1286      C1294   1.387       .  A
C1286      C1297   1.416       .  A
C1287      C1784   1.373       .  A
C1287      H1299   1.081       .  S
C1288      C1783   1.373   1_545  A
C1288      H1300   1.082       .  S
C1289      C1786   1.376       .  A
C1289      H1301   1.082       .  S
C1290      C1785   1.376   1_545  A
C1290      H1302   1.082       .  S
C1291      H1303   1.082       .  S
C1292      H1304   1.082       .  S
C1293      H1305   1.082       .  S
C1294      H1306   1.082       .  S
C1295      C1377   1.489       .  S
C1296      C1401   1.488       .  S
C1297      C1417   1.495       .  S
C1298      C1361   1.487       .  S
O1309     Ni1315   1.942       .  S
O1309      C1330   1.272       .  A
O1310     Ni1333   1.919       .  S
O1311      H1334   0.967   1_554  S
O1311     Ni1327   1.905       .  S
C1312      C1473   1.487       .  S
C1312      O1329   1.270   1_556  A
C1312      O1321   1.273       .  A
O1313     Ni1332   1.924       .  S
O1313      C1319   1.271       .  A
O1314     Ni1332   1.901       .  S
O1314      C1316   1.267       .  A
Ni1315     O1318   1.934       .  S
Ni1315     O1320   1.905       .  S
C1316      C1348   1.471       .  S
C1316      O1326   1.275       .  A
O1317     Ni1333   1.923       .  S
O1317      C1323   1.275       .  A
O1318      C1323   1.277       .  A
C1319      C1465   1.490       .  S
O1320      C1322   1.268       .  A
O1321     Ni1332   1.932       .  S
C1322      C1342   1.481       .  S
C1322      O1328   1.277       .  A
C1323      C1449   1.481       .  S
H1324      O1325   0.966       .  S
O1325     Ni1333   1.931       .  S
O1326     Ni1327   1.936   1_556  S
Ni1327     O1331   1.911   1_554  S
Ni1327     O1329   1.914       .  S
O1328     Ni1333   1.947       .  S
C1330      C1433   1.478       .  S
O1335     Ni1341   1.925       .  S
O1335      C1356   1.269       .  A
O1336     Ni1359   1.909       .  S
O1336      C1345   1.268       .  A
O1337      H1360   0.966       .  S
O1337     Ni1341   1.920       .  S
O1337     Ni1359   1.910       .  S
O1337     Ni1353   1.920       .  S
C1338      C1409   1.486       .  S
C1338      O1355   1.279       .  A
C1338      O1347   1.278       .  A
O1339     Ni1358   1.935       .  S
O1339      C1345   1.273       .  A
O1340     Ni1358   1.914       .  S
O1340      C1342   1.269       .  A
Ni1341     O1344   1.927       .  S
Ni1341     O1346   1.900       .  S
C1342      O1352   1.275       .  A
O1343     Ni1359   1.920       .  S
O1343      C1349   1.275       .  A
O1344      C1349   1.276       .  A
C1345      C1393   1.487       .  S
O1346      C1348   1.265       .  A
O1347     Ni1358   1.926       .  S
C1348      O1354   1.273       .  A
C1349      C1385   1.473       .  S
H1350      O1351   0.966       .  S
O1351     Ni1359   1.912       .  S
O1351     Ni1353   1.912       .  S
O1351     Ni1358   1.917       .  S
O1352     Ni1353   1.936       .  S
Ni1353     O1357   1.925       .  S
Ni1353     O1355   1.928       .  S
O1354     Ni1359   1.933       .  S
C1356      C1369   1.483       .  S
C1356      O1357   1.271       .  A
C1361      C1362   1.402       .  A
C1361      C1366   1.407       .  A
C1362      C1363   1.397       .  A
C1362      H1371   1.083       .  S
C1363      C1364   1.403       .  A
C1363      H1372   1.083       .  S
C1364      C1370   1.403       .  A
C1364      C1365   1.413       .  A
C1365      C1367   1.406       .  A
C1365      C1366   1.408       .  A
C1366      H1373   1.084       .  S
C1367      C1368   1.403       .  A
C1367      H1374   1.084       .  S
C1368      C1369   1.405       .  A
C1368      H1375   1.083       .  S
C1369      C1370   1.408       .  A
C1370      H1376   1.084       .  S
C1377      C1378   1.404       .  A
C1377      C1382   1.405       .  A
C1378      C1379   1.398       .  A
C1378      H1387   1.083       .  S
C1379      C1380   1.403       .  A
C1379      H1388   1.084       .  S
C1380      C1386   1.406       .  A
C1380      C1381   1.416       .  A
C1381      C1383   1.403       .  A
C1381      C1382   1.405       .  A
C1382      H1389   1.084       .  S
C1383      C1384   1.398       .  A
C1383      H1390   1.083       .  S
C1384      C1385   1.404       .  A
C1384      H1391   1.084       .  S
C1385      C1386   1.403       .  A
C1386      H1392   1.084       .  S
C1393      C1394   1.408       .  A
C1393      C1398   1.407       .  A
C1394      C1395   1.400       .  A
C1394      H1403   1.083       .  S
C1395      C1396   1.403       .  A
C1395      H1404   1.083       .  S
C1396      C1402   1.408       .  A
C1396      C1397   1.415       .  A
C1397      C1399   1.402       .  A
C1397      C1398   1.404       .  A
C1398      H1405   1.084       .  S
C1399      C1400   1.395       .  A
C1399      H1406   1.084       .  S
C1400      C1401   1.403       .  A
C1400      H1407   1.083       .  S
C1401      C1402   1.406       .  A
C1402      H1408   1.084       .  S
C1409      C1410   1.407       .  A
C1409      C1414   1.408       .  A
C1410      C1411   1.397       .  A
C1410      H1419   1.083       .  S
C1411      C1412   1.400       .  A
C1411      H1420   1.084       .  S
C1412      C1418   1.406       .  A
C1412      C1413   1.415       .  A
C1413      C1415   1.404       .  A
C1413      C1414   1.410       .  A
C1414      H1421   1.084       .  S
C1415      C1416   1.400       .  A
C1415      H1422   1.083       .  S
C1416      C1417   1.406       .  A
C1416      H1423   1.083       .  S
C1417      C1418   1.405       .  A
C1418      H1424   1.084       .  S
C1425      C1430   1.405       .  A
C1426      C1427   1.400       .  A
C1426      H1435   1.083       .  S
C1427      H1436   1.084       .  S
C1428      C1434   1.408       .  A
C1428      C1429   1.415       .  A
C1429      C1431   1.404       .  A
C1429      C1430   1.407       .  A
C1430      H1437   1.084       .  S
C1431      C1432   1.400       .  A
C1431      H1438   1.084       .  S
C1432      C1433   1.404       .  A
C1432      H1439   1.083       .  S
C1433      C1434   1.406       .  A
C1434      H1440   1.084       .  S
C1441      C1446   1.406       .  A
C1442      C1443   1.401       .  A
C1442      H1451   1.083       .  S
C1443      H1452   1.083       .  S
C1444      C1450   1.411       .  A
C1444      C1445   1.415       .  A
C1445      C1447   1.402       .  A
C1445      C1446   1.407       .  A
C1446      H1453   1.084       .  S
C1447      C1448   1.398       .  A
C1447      H1454   1.084       .  S
C1448      C1449   1.404       .  A
C1448      H1455   1.083       .  S
C1449      C1450   1.409       .  A
C1450      H1456   1.084       .  S
C1457      C1458   1.403       .  A
C1458      C1459   1.393       .  A
C1458      H1467   1.084       .  S
C1459      C1460   1.401       .  A
C1459      H1468   1.084       .  S
C1460      C1466   1.401       .  A
C1460      C1461   1.413       .  A
C1461      C1463   1.407   1_556  A
C1462      H1469   1.084       .  S
C1463      C1464   1.406       .  A
C1464      C1465   1.407   1_554  A
C1464      H1471   1.083       .  S
C1465      C1466   1.409       .  A
C1466      H1472   1.084       .  S
C1473      C1474   1.406   1_556  A
C1473      C1478   1.408       .  A
C1474      C1475   1.401       .  A
C1474      H1483   1.083       .  S
C1475      C1476   1.404   1_554  A
C1475      H1484   1.083       .  S
C1476      C1482   1.409       .  A
C1476      C1477   1.414       .  A
C1477      C1479   1.403       .  A
C1477      C1478   1.406       .  A
C1478      H1485   1.084       .  S
C1479      C1480   1.397       .  A
C1479      H1486   1.084       .  S
C1480      C1481   1.405       .  A
C1480      H1487   1.084       .  S
C1481      C1482   1.408       .  A
C1482      H1488   1.084   1_556  S
N1489      C1494   1.355   1_545  A
N1489      H1521   1.039       .  S
N1490      C1498   1.353   1_455  A
N1491      C1495   1.356       .  A
N1491      H1522   1.036       .  S
N1492      C1499   1.353       .  A
C1493      C1501   1.388       .  A
C1493      C1509   1.419       .  A
C1494      C1510   1.417       .  A
C1494      C1502   1.387       .  A
C1495      C1503   1.387       .  A
C1495      C1512   1.422       .  A
C1496      C1511   1.425       .  A
C1496      C1504   1.389       .  A
C1497      C1509   1.414       .  A
C1497      C1505   1.385       .  A
C1498      C1512   1.416       .  A
C1498      C1506   1.387       .  A
C1499      C1507   1.384       .  A
C1499      C1510   1.415       .  A
C1500      C1508   1.388       .  A
C1500      C1511   1.421       .  A
C1501      H1513   1.082       .  S
C1502      H1514   1.082       .  S
C1503      H1515   1.082   1_556  S
C1504      H1516   1.080   1_556  S
C1505      H1517   1.082       .  S
C1506      H1518   1.082       .  S
C1507      H1519   1.082       .  S
C1508      H1520   1.081       .  S
C1509      C1977   1.495       .  S
C1510      C1673   1.491       .  S
C1511      C1689   1.498       .  S
C1512      C1953   1.492       .  S
N1523      C1528   1.353       .  A
N1523      H1555   1.033       .  S
N1524      C1532   1.352       .  A
N1525      C1529   1.355       .  A
N1525      H1556   1.037       .  S
N1526      C1533   1.354       .  A
C1527      C1535   1.388       .  A
C1527      C1543   1.421       .  A
C1528      C1544   1.419       .  A
C1528      C1536   1.387       .  A
C1529      C1537   1.388       .  A
C1529      C1546   1.421       .  A
C1530      C1545   1.421       .  A
C1530      C1538   1.387       .  A
C1531      C1543   1.417       .  A
C1531      C1539   1.387       .  A
C1532      C1546   1.416       .  A
C1532      C1540   1.386       .  A
C1533      C1541   1.385       .  A
C1533      C1544   1.417       .  A
C1534      C1542   1.387       .  A
C1534      C1545   1.417       .  A
C1535      H1547   1.081       .  S
C1536      H1548   1.082       .  S
C1537      H1549   1.082       .  S
C1538      H1550   1.082       .  S
C1539      H1551   1.082       .  S
C1540      H1552   1.082       .  S
C1541      H1553   1.082       .  S
C1542      H1554   1.082       .  S
C1543      C1625   1.490       .  S
C1544      C1649   1.488       .  S
C1545      C1665   1.494       .  S
C1546      C1609   1.487       .  S
O1557     Ni1563   1.941       .  S
O1557      C1578   1.272       .  A
O1558     Ni1581   1.920       .  S
O1558      C1815   1.271   1_554  A
O1559      H1582   0.967       .  S
O1559     Ni1811   1.921       .  S
O1559     Ni1829   1.910       .  S
O1559     Ni1575   1.905       .  S
C1560      C1721   1.486       .  S
C1560      O1577   1.270       .  A
C1560      O1569   1.273       .  A
O1561     Ni1580   1.924       .  S
O1561      C1567   1.272       .  A
O1562     Ni1580   1.901       .  S
O1562      C1564   1.267       .  A
Ni1563     O1566   1.933       .  S
Ni1563     O1568   1.906       .  S
Ni1563     O1807   1.920       .  S
C1564      C1596   1.472       .  S
C1564      O1574   1.277       .  A
O1565     Ni1581   1.926       .  S
O1565      C1571   1.276       .  A
O1566      C1571   1.277       .  A
C1567      C1713   1.490       .  S
C1567      O1806   1.270       .  A
O1568      C1570   1.268       .  A
O1569     Ni1580   1.932       .  S
C1570      C1590   1.480       .  S
C1570      O1576   1.276       .  A
C1571      C1697   1.482       .  S
H1572      O1573   0.966       .  S
O1573     Ni1581   1.932       .  S
O1573     Ni1823   1.922       .  S
O1573     Ni1828   1.929   1_554  S
O1574     Ni1575   1.940       .  S
Ni1575     O1579   1.911       .  S
Ni1575     O1577   1.913       .  S
Ni1575     O1821   1.922       .  S
O1576     Ni1581   1.945       .  S
C1578      C1681   1.477       .  S
C1578      O1827   1.266   1_554  A
O1579      C1826   1.267       .  A
Ni1580     O1821   1.929       .  S
Ni1581     O1807   1.910       .  S
O1583     Ni1589   1.926       .  S
O1583      C1604   1.269       .  A
O1584     Ni1607   1.910       .  S
O1584      C1593   1.268       .  A
O1585      H1608   0.966       .  S
O1585     Ni1589   1.920       .  S
O1585     Ni1607   1.910       .  S
O1585     Ni1601   1.920       .  S
C1586      C1657   1.485       .  S
C1586      O1603   1.279       .  A
C1586      O1595   1.277       .  A
O1587     Ni1606   1.934       .  S
O1587      C1593   1.273       .  A
O1588     Ni1606   1.914       .  S
O1588      C1590   1.269       .  A
Ni1589     O1592   1.928       .  S
Ni1589     O1594   1.900       .  S
C1590      O1600   1.274       .  A
O1591     Ni1607   1.920       .  S
O1591      C1597   1.275       .  A
O1592      C1597   1.276       .  A
C1593      C1641   1.487       .  S
O1594      C1596   1.265       .  A
O1595     Ni1606   1.926       .  S
C1596      O1602   1.274       .  A
C1597      C1633   1.474       .  S
H1598      O1599   0.966       .  S
O1599     Ni1607   1.913       .  S
O1599     Ni1601   1.911       .  S
O1599     Ni1606   1.918       .  S
O1600     Ni1601   1.934       .  S
Ni1601     O1605   1.922       .  S
Ni1601     O1603   1.928       .  S
O1602     Ni1607   1.935       .  S
C1604      C1617   1.482       .  S
C1604      O1605   1.270       .  A
C1609      C1610   1.402       .  A
C1609      C1614   1.407       .  A
C1610      C1611   1.396       .  A
C1610      H1619   1.083       .  S
C1611      C1612   1.403       .  A
C1611      H1620   1.083       .  S
C1612      C1618   1.402       .  A
C1612      C1613   1.414       .  A
C1613      C1615   1.406       .  A
C1613      C1614   1.408       .  A
C1614      H1621   1.084       .  S
C1615      C1616   1.403       .  A
C1615      H1622   1.084       .  S
C1616      C1617   1.405       .  A
C1616      H1623   1.083       .  S
C1617      C1618   1.407       .  A
C1618      H1624   1.085       .  S
C1625      C1626   1.404       .  A
C1625      C1630   1.405       .  A
C1626      C1627   1.398       .  A
C1626      H1635   1.083       .  S
C1627      C1628   1.403       .  A
C1627      H1636   1.084       .  S
C1628      C1634   1.406       .  A
C1628      C1629   1.416       .  A
C1629      C1631   1.403       .  A
C1629      C1630   1.405       .  A
C1630      H1637   1.084       .  S
C1631      C1632   1.398       .  A
C1631      H1638   1.083       .  S
C1632      C1633   1.404       .  A
C1632      H1639   1.084       .  S
C1633      C1634   1.404       .  A
C1634      H1640   1.084       .  S
C1641      C1642   1.408       .  A
C1641      C1646   1.407       .  A
C1642      C1643   1.400       .  A
C1642      H1651   1.083       .  S
C1643      C1644   1.403       .  A
C1643      H1652   1.083       .  S
C1644      C1650   1.408       .  A
C1644      C1645   1.415       .  A
C1645      C1647   1.402       .  A
C1645      C1646   1.404       .  A
C1646      H1653   1.084       .  S
C1647      C1648   1.395       .  A
C1647      H1654   1.084       .  S
C1648      C1649   1.403       .  A
C1648      H1655   1.083       .  S
C1649      C1650   1.406       .  A
C1650      H1656   1.084       .  S
C1657      C1658   1.407       .  A
C1657      C1662   1.408       .  A
C1658      C1659   1.397       .  A
C1658      H1667   1.083       .  S
C1659      C1660   1.401       .  A
C1659      H1668   1.084       .  S
C1660      C1666   1.406       .  A
C1660      C1661   1.415       .  A
C1661      C1663   1.404       .  A
C1661      C1662   1.409       .  A
C1662      H1669   1.084       .  S
C1663      C1664   1.400       .  A
C1663      H1670   1.083       .  S
C1664      C1665   1.406       .  A
C1664      H1671   1.083       .  S
C1665      C1666   1.405       .  A
C1666      H1672   1.084       .  S
C1673      C1922   1.404       .  A
C1673      C1678   1.405   1_556  A
C1674      C1921   1.403       .  A
C1674      C1675   1.400       .  A
C1674      H1683   1.083       .  S
C1675      C1924   1.404       .  A
C1675      H1684   1.084       .  S
C1676      C1923   1.404       .  A
C1676      C1682   1.408       .  A
C1676      C1677   1.415   1_556  A
C1677      C1679   1.404       .  A
C1677      C1678   1.407       .  A
C1678      H1685   1.084       .  S
C1679      C1680   1.400       .  A
C1679      H1686   1.084       .  S
C1680      C1681   1.403       .  A
C1680      H1687   1.083       .  S
C1681      C1682   1.406   1_554  A
C1682      H1688   1.084       .  S
C1689      C1938   1.406       .  A
C1689      C1694   1.406   1_556  A
C1690      C1937   1.406       .  A
C1690      C1691   1.402       .  A
C1690      H1699   1.083       .  S
C1691      C1940   1.405       .  A
C1691      H1700   1.083       .  S
C1692      C1939   1.405       .  A
C1692      C1698   1.412       .  A
C1692      C1693   1.415   1_556  A
C1693      C1695   1.402       .  A
C1693      C1694   1.407       .  A
C1694      H1701   1.084       .  S
C1695      C1696   1.398       .  A
C1695      H1702   1.084       .  S
C1696      C1697   1.405       .  A
C1696      H1703   1.083       .  S
C1697      C1698   1.409   1_554  A
C1698      H1704   1.084       .  S
C1705      C1706   1.403       .  A
C1705      C1958   1.410       .  A
C1705      C1760   1.492       .  S
C1706      C1707   1.393       .  A
C1706      H1715   1.084       .  S
C1707      C1708   1.401       .  A
C1707      H1716   1.084       .  S
C1708      C1714   1.401       .  A
C1708      C1709   1.413       .  A
C1709      C1711   1.407       .  A
C1709      C1958   1.411       .  A
C1710      C1953   1.410       .  A
C1710      C1957   1.412       .  A
C1710      H1717   1.084   1_556  S
C1711      C1712   1.405       .  A
C1711      H1966   1.083       .  S
C1712      C1713   1.407       .  A
C1712      H1719   1.083       .  S
C1713      C1714   1.409       .  A
C1714      H1720   1.084       .  S
H1718      C1959   1.083       .  S
C1721      C1722   1.406       .  A
C1721      C1726   1.408       .  A
C1722      C1723   1.401       .  A
C1722      H1731   1.083       .  S
C1723      C1724   1.404       .  A
C1723      H1732   1.083       .  S
C1724      C1730   1.409       .  A
C1724      C1725   1.414       .  A
C1725      C1727   1.403       .  A
C1725      C1726   1.406       .  A
C1726      H1733   1.084       .  S
C1727      C1728   1.397       .  A
C1727      H1734   1.084       .  S
C1728      C1729   1.405       .  A
C1728      H1735   1.084       .  S
C1729      C1730   1.408       .  A
C1729      C1757   1.495       .  S
C1730      H1736   1.084       .  S
N1737      C1742   1.355   1_545  A
N1737      H1769   1.039       .  S
N1738      C1746   1.353   1_455  A
N1739      C1743   1.355       .  A
N1739      H1770   1.037       .  S
N1740      C1747   1.353       .  A
C1741      C1749   1.387       .  A
C1741      C1757   1.419       .  A
C1742      C1758   1.417       .  A
C1742      C1750   1.387       .  A
C1743      C1751   1.386       .  A
C1743      C1760   1.422       .  A
C1744      C1759   1.425       .  A
C1744      C1752   1.389       .  A
C1745      C1757   1.414       .  A
C1745      C1753   1.385       .  A
C1746      C1760   1.416       .  A
C1746      C1754   1.387       .  A
C1747      C1755   1.384       .  A
C1747      C1758   1.415       .  A
C1748      C1756   1.388       .  A
C1748      C1759   1.420       .  A
C1749      H1761   1.082       .  S
C1750      H1762   1.082       .  S
C1751      H1763   1.082       .  S
C1752      H1764   1.080       .  S
C1753      H1765   1.082       .  S
C1754      H1766   1.082       .  S
C1755      H1767   1.082       .  S
C1756      H1768   1.081       .  S
C1758      C1921   1.490       .  S
C1759      C1937   1.498       .  S
N1771      C1776   1.353       .  A
N1771      H1803   1.033       .  S
N1772      C1780   1.352       .  A
N1773      C1777   1.355       .  A
N1773      H1804   1.037       .  S
N1774      C1781   1.354       .  A
C1775      C1783   1.388       .  A
C1775      C1791   1.421       .  A
C1776      C1792   1.419       .  A
C1776      C1784   1.387       .  A
C1777      C1785   1.388       .  A
C1777      C1794   1.421       .  A
C1778      C1793   1.421       .  A
C1778      C1786   1.387       .  A
C1779      C1791   1.417       .  A
C1779      C1787   1.387       .  A
C1780      C1794   1.416       .  A
C1780      C1788   1.386       .  A
C1781      C1789   1.385       .  A
C1781      C1792   1.416       .  A
C1782      C1790   1.387       .  A
C1782      C1793   1.416       .  A
C1783      H1795   1.081       .  S
C1784      H1796   1.082       .  S
C1785      H1797   1.082       .  S
C1786      H1798   1.082       .  S
C1787      H1799   1.082       .  S
C1788      H1800   1.082       .  S
C1789      H1801   1.082       .  S
C1790      H1802   1.082       .  S
C1791      C1873   1.489       .  S
C1792      C1897   1.488       .  S
C1793      C1913   1.495       .  S
C1794      C1857   1.487       .  S
O1805     Ni1811   1.942       .  S
O1805      C1826   1.273       .  A
O1806     Ni1829   1.919       .  S
O1807      H1830   0.967   1_554  S
O1807     Ni1823   1.906       .  S
C1808      C1969   1.487       .  S
C1808      O1825   1.270   1_556  A
C1808      O1817   1.273       .  A
O1809     Ni1828   1.924       .  S
O1809      C1815   1.271       .  A
O1810     Ni1828   1.901       .  S
O1810      C1812   1.267       .  A
Ni1811     O1814   1.934       .  S
Ni1811     O1816   1.906       .  S
C1812      C1844   1.471       .  S
C1812      O1822   1.275       .  A
O1813     Ni1829   1.923       .  S
O1813      C1819   1.275       .  A
O1814      C1819   1.277       .  A
C1815      C1961   1.490       .  S
O1816      C1818   1.268       .  A
O1817     Ni1828   1.932       .  S
C1818      C1838   1.481       .  S
C1818      O1824   1.277       .  A
C1819      C1945   1.481       .  S
H1820      O1821   0.966       .  S
O1821     Ni1829   1.931       .  S
O1822     Ni1823   1.936   1_556  S
Ni1823     O1827   1.911   1_554  S
Ni1823     O1825   1.915       .  S
O1824     Ni1829   1.948       .  S
C1826      C1929   1.478       .  S
O1831     Ni1837   1.925       .  S
O1831      C1852   1.269       .  A
O1832     Ni1855   1.909       .  S
O1832      C1841   1.268       .  A
O1833      H1856   0.966       .  S
O1833     Ni1837   1.920       .  S
O1833     Ni1855   1.910       .  S
O1833     Ni1849   1.920       .  S
C1834      C1905   1.486       .  S
C1834      O1851   1.279       .  A
C1834      O1843   1.278       .  A
O1835     Ni1854   1.935       .  S
O1835      C1841   1.273       .  A
O1836     Ni1854   1.914       .  S
O1836      C1838   1.269       .  A
Ni1837     O1840   1.927       .  S
Ni1837     O1842   1.899       .  S
C1838      O1848   1.275       .  A
O1839     Ni1855   1.919       .  S
O1839      C1845   1.275       .  A
O1840      C1845   1.276       .  A
C1841      C1889   1.487       .  S
O1842      C1844   1.265       .  A
O1843     Ni1854   1.926       .  S
C1844      O1850   1.273       .  A
C1845      C1881   1.473       .  S
H1846      O1847   0.966       .  S
O1847     Ni1855   1.912       .  S
O1847     Ni1849   1.912       .  S
O1847     Ni1854   1.917       .  S
O1848     Ni1849   1.937       .  S
Ni1849     O1853   1.924       .  S
Ni1849     O1851   1.928       .  S
O1850     Ni1855   1.933       .  S
C1852      C1865   1.483       .  S
C1852      O1853   1.271       .  A
C1857      C1858   1.402       .  A
C1857      C1862   1.407       .  A
C1858      C1859   1.397       .  A
C1858      H1867   1.083       .  S
C1859      C1860   1.403       .  A
C1859      H1868   1.083       .  S
C1860      C1866   1.403       .  A
C1860      C1861   1.413       .  A
C1861      C1863   1.406       .  A
C1861      C1862   1.407       .  A
C1862      H1869   1.084       .  S
C1863      C1864   1.403       .  A
C1863      H1870   1.084       .  S
C1864      C1865   1.405       .  A
C1864      H1871   1.083       .  S
C1865      C1866   1.408       .  A
C1866      H1872   1.084       .  S
C1873      C1874   1.404       .  A
C1873      C1878   1.405       .  A
C1874      C1875   1.398       .  A
C1874      H1883   1.083       .  S
C1875      C1876   1.403       .  A
C1875      H1884   1.084       .  S
C1876      C1882   1.406       .  A
C1876      C1877   1.416       .  A
C1877      C1879   1.403       .  A
C1877      C1878   1.405       .  A
C1878      H1885   1.084       .  S
C1879      C1880   1.398       .  A
C1879      H1886   1.083       .  S
C1880      C1881   1.404       .  A
C1880      H1887   1.084       .  S
C1881      C1882   1.403       .  A
C1882      H1888   1.084       .  S
C1889      C1890   1.408       .  A
C1889      C1894   1.407       .  A
C1890      C1891   1.400       .  A
C1890      H1899   1.083       .  S
C1891      C1892   1.403       .  A
C1891      H1900   1.083       .  S
C1892      C1898   1.408       .  A
C1892      C1893   1.415       .  A
C1893      C1895   1.402       .  A
C1893      C1894   1.404       .  A
C1894      H1901   1.084       .  S
C1895      C1896   1.395       .  A
C1895      H1902   1.084       .  S
C1896      C1897   1.403       .  A
C1896      H1903   1.083       .  S
C1897      C1898   1.406       .  A
C1898      H1904   1.084       .  S
C1905      C1906   1.407       .  A
C1905      C1910   1.409       .  A
C1906      C1907   1.397       .  A
C1906      H1915   1.083       .  S
C1907      C1908   1.400       .  A
C1907      H1916   1.084       .  S
C1908      C1914   1.406       .  A
C1908      C1909   1.415       .  A
C1909      C1911   1.404       .  A
C1909      C1910   1.410       .  A
C1910      H1917   1.084       .  S
C1911      C1912   1.400       .  A
C1911      H1918   1.083       .  S
C1912      C1913   1.406       .  A
C1912      H1919   1.083       .  S
C1913      C1914   1.405       .  A
C1914      H1920   1.084       .  S
C1921      C1926   1.405       .  A
C1922      C1923   1.400       .  A
C1922      H1931   1.083       .  S
C1923      H1932   1.084       .  S
C1924      C1930   1.408       .  A
C1924      C1925   1.415       .  A
C1925      C1927   1.404       .  A
C1925      C1926   1.407       .  A
C1926      H1933   1.084       .  S
C1927      C1928   1.400       .  A
C1927      H1934   1.084       .  S
C1928      C1929   1.403       .  A
C1928      H1935   1.083       .  S
C1929      C1930   1.406       .  A
C1930      H1936   1.084       .  S
C1937      C1942   1.406       .  A
C1938      C1939   1.402       .  A
C1938      H1947   1.083       .  S
C1939      H1948   1.083       .  S
C1940      C1946   1.412       .  A
C1940      C1941   1.415       .  A
C1941      C1943   1.402       .  A
C1941      C1942   1.407       .  A
C1942      H1949   1.084       .  S
C1943      C1944   1.398       .  A
C1943      H1950   1.084       .  S
C1944      C1945   1.404       .  A
C1944      H1951   1.083       .  S
C1945      C1946   1.409       .  A
C1946      H1952   1.084       .  S
C1953      C1954   1.403       .  A
C1954      C1955   1.393       .  A
C1954      H1963   1.084       .  S
C1955      C1956   1.401       .  A
C1955      H1964   1.084       .  S
C1956      C1962   1.401       .  A
C1956      C1957   1.413       .  A
C1957      C1959   1.407   1_556  A
C1958      H1965   1.084       .  S
C1959      C1960   1.406       .  A
C1960      C1961   1.407   1_554  A
C1960      H1967   1.083       .  S
C1961      C1962   1.409       .  A
C1962      H1968   1.084       .  S
C1969      C1970   1.406   1_556  A
C1969      C1974   1.408       .  A
C1970      C1971   1.401       .  A
C1970      H1979   1.083       .  S
C1971      C1972   1.404   1_554  A
C1971      H1980   1.083       .  S
C1972      C1978   1.409       .  A
C1972      C1973   1.414       .  A
C1973      C1975   1.403       .  A
C1973      C1974   1.407       .  A
C1974      H1981   1.084       .  S
C1975      C1976   1.397       .  A
C1975      H1982   1.084       .  S
C1976      C1977   1.405       .  A
C1976      H1983   1.084       .  S
C1977      C1978   1.407       .  A
C1978      H1984   1.084   1_556  S
