geometry optimzed in LAMMPS
_audit_creation_date              2020-11-30 
_audit_creation_method            'lammps2cif' 
_symmetry_space_group_name_H-M    'P1' 
_symmetry_Int_Tables_number       1 
_symmetry_cell_setting            triclinic 
loop_ 
_symmetry_equiv_pos_as_xyz 
  x,y,z 
_cell_length_a                    37.73692017 
_cell_length_b                    40.660986892859725 
_cell_length_c                    37.373831463514065 
_cell_angle_alpha                 91.01509121739718 
_cell_angle_beta                  90.67889164062113 
_cell_angle_gamma                 89.96519336070578 
loop_ 
_atom_site_label 
_atom_site_type_symbol 
_atom_site_fract_x 
_atom_site_fract_y 
_atom_site_fract_z 
_atom_site_charge 
N1          N  0.46023637  0.44728675  0.43360372    -0.06400
N2          N  0.45137052  0.42624635  0.40763129    -0.58500
N3          N  0.43556171  0.52235853  0.45976215    -0.06100
N4          N  0.41186301  0.54566520  0.45449331    -0.60600
N5          N  0.45982527  0.52278372  0.43479914    -0.05700
N6          N  0.45316557  0.54656706  0.41205606    -0.58500
N7          N  0.43616028  0.44726069  0.45881290    -0.05300
N8          N  0.41056185  0.42630542  0.45038380    -0.61000
C9          C  0.42053309  0.41294377  0.41862852     0.95800
C10         C  0.42334341  0.56080535  0.42490175     0.95600
N11         N  0.46233745  0.52466643  0.56842311    -0.06600
N12         N  0.45781586  0.55001387  0.59044349    -0.59100
N13         N  0.43819625  0.44823635  0.54400431    -0.04700
N14         N  0.41417267  0.42588732  0.55144981    -0.60300
N15         N  0.46321663  0.44893184  0.56882967    -0.06600
N16         N  0.45668211  0.42701206  0.59358253    -0.59400
N17         N  0.43741481  0.52404013  0.54358610    -0.04300
N18         N  0.41548986  0.54902779  0.54822609    -0.60400
Mn19       Mn  0.43588359  0.48527015  0.50165545     1.18400
C20         C  0.42858776  0.56522086  0.57751109     0.97900
C21         C  0.42596985  0.41279250  0.58241799     0.98500
N22         N  0.54369028  0.52367427  0.43459462    -0.06600
N23         N  0.54998202  0.54662998  0.41089047    -0.62900
N24         N  0.56931941  0.44924111  0.45999949    -0.05400
N25         N  0.59362467  0.42665625  0.45394571    -0.63600
N26         N  0.54470590  0.44815458  0.43477091    -0.06100
N27         N  0.55201952  0.42474930  0.41100695    -0.63200
N28         N  0.56829821  0.52426771  0.45981179    -0.05000
N29         N  0.59173945  0.54744578  0.45381096    -0.63900
Mn30       Mn  0.50216649  0.48538143  0.43327467     1.10700
C31         C  0.58015541  0.56117683  0.42322532     0.99100
C32         C  0.58266341  0.41145101  0.42340215     0.99200
N33         N  0.54712065  0.45059358  0.56893761    -0.06100
N34         N  0.55545244  0.42928811  0.59385949    -0.61500
N35         N  0.56970428  0.52641923  0.54417700    -0.05500
N36         N  0.59255841  0.55048903  0.55100494    -0.58200
N37         N  0.54520198  0.52595558  0.56886021    -0.06800
N38         N  0.55078350  0.54960694  0.59283732    -0.61100
N39         N  0.57154849  0.45078765  0.54418888    -0.05800
N40         N  0.59690255  0.42954010  0.55180007    -0.58300
Mn41       Mn  0.50438372  0.48737386  0.56969147     1.20200
Mn42       Mn  0.57063055  0.48768890  0.50192831     1.10100
Cl43       Cl  0.50325066  0.48623448  0.50156639    -0.86200
C44         C  0.58644244  0.41605830  0.58283969     0.96100
C45         C  0.58044359  0.56472179  0.58162872     0.95900
N46         N  0.94983661  0.48848547  0.92246749    -0.06400
N47         N  0.94464814  0.46537226  0.89769680    -0.58500
N48         N  0.92199370  0.56148825  0.95227437    -0.06100
N49         N  0.89632803  0.58295374  0.94705127    -0.60600
N50         N  0.94619626  0.56395997  0.92742625    -0.05700
N51         N  0.93736741  0.58723021  0.90475462    -0.58500
N52         N  0.92591792  0.48630657  0.94759464    -0.05300
N53         N  0.90401884  0.46173388  0.94036124    -0.61000
C54         C  0.91601463  0.44871294  0.90915851     0.95800
C55         C  0.90617996  0.59889082  0.91737498     0.95600
N56         N  0.94915513  0.55924697  0.06062895    -0.06600
N57         N  0.94198446  0.58071361  0.08636870    -0.59100
N58         N  0.92726877  0.48335114  0.03206816    -0.04700
N59         N  0.90480570  0.45921368  0.03827327    -0.60300
N60         N  0.95244704  0.48415305  0.05665903    -0.06600
N61         N  0.94778027  0.46070657  0.07999699    -0.59400
N62         N  0.92378915  0.55893683  0.03620432    -0.04300
N63         N  0.89888379  0.58041443  0.04474569    -0.60400
Mn64       Mn  0.92372696  0.52241201  0.99199645     1.18400
C65         C  0.91063079  0.59377274  0.07612163     0.97900
C66         C  0.91801229  0.44535797  0.06833346     0.98500
N67         N  0.03057969  0.56687165  0.92682961    -0.06600
N68         N  0.03658598  0.58990772  0.90320830    -0.62900
N69         N  0.05784011  0.49092944  0.94687948    -0.05400
N70         N  0.08137068  0.46792130  0.93912635    -0.63600
N71         N  0.03293959  0.49171410  0.92196398    -0.06100
N72         N  0.03906597  0.46941345  0.89671894    -0.63200
N73         N  0.05601355  0.56660472  0.95126328    -0.05000
N74         N  0.07970306  0.58963835  0.94463436    -0.63900
Mn75       Mn  0.98986927  0.52797976  0.92368288     1.10700
C76         C  0.06723652  0.60406143  0.91453940     0.99100
C77         C  0.06935212  0.45480577  0.90772316     0.99200
N78         N  0.03479034  0.48704976  0.05670968    -0.06100
N79         N  0.04096710  0.46337620  0.07953993    -0.61500
N80         N  0.05746482  0.56317345  0.03640064    -0.05500
N81         N  0.08209094  0.58465874  0.04629180    -0.58200
N82         N  0.03278519  0.56168248  0.06089725    -0.06800
N83         N  0.04016599  0.58190994  0.08790315    -0.61100
N84         N  0.05928102  0.48762285  0.03198575    -0.05800
N85         N  0.08274641  0.46399316  0.03757709    -0.58300
Mn86       Mn  0.99226305  0.52320700  0.05939949     1.20200
Mn87       Mn  0.05880531  0.52711080  0.99156189     1.10100
Cl88       Cl  0.99122729  0.52528464  0.99161697    -0.86200
C89         C  0.07069827  0.44894580  0.06721290     0.96100
C90         C  0.07088005  0.59615413  0.07845476     0.95900
C91         C  0.72959223  0.22604667  0.78711151     0.86200
C92         C  0.75607738  0.24798967  0.80755932    -0.54000
C93         C  0.77727989  0.26635079  0.78637654     0.09100
C94         C  0.76997560  0.26109522  0.74577092     0.20100
C95         C  0.70920262  0.24965925  0.76242279    -0.54700
C96         C  0.72996112  0.26758852  0.74048340     0.09200
C97         C  0.75185662  0.20559154  0.76060923    -0.54300
C98         C  0.77355741  0.22355478  0.73926220     0.09800
H99         H  0.75691433  0.24982808  0.83659105     0.14300
H100        H  0.78724137  0.27618415  0.72873205     0.00100
H101        H  0.68064029  0.25106699  0.76010172     0.14600
H102        H  0.75021856  0.17896782  0.75850994     0.14400
N103        N  0.53214233  0.03998097  0.93701804    -0.06400
N104        N  0.53949450  0.06202797  0.91260190    -0.58500
N105        N  0.55570167  0.96480776  0.96279609    -0.06100
N106        N  0.57984631  0.94211219  0.95580982    -0.60600
N107        N  0.53090314  0.96457552  0.93772605    -0.05700
N108        N  0.53791643  0.94174849  0.91315856    -0.58500
N109        N  0.55648601  0.04044095  0.96254906    -0.05300
N110        N  0.58054743  0.06308236  0.95635349    -0.61000
C111        C  0.56945643  0.07651666  0.92538595     0.95800
C112        C  0.56832089  0.92755267  0.92498412     0.95600
N113        N  0.53329400  0.96750879  0.07268647    -0.06600
N114        N  0.54091283  0.94570824  0.09746226    -0.59100
N115        N  0.55833236  0.04204227  0.04703135    -0.04700
N116        N  0.58334929  0.06402047  0.05367443    -0.60300
N117        N  0.53447111  0.04297030  0.07239905    -0.06600
N118        N  0.54291796  0.06562426  0.09682785    -0.59400
N119        N  0.55756502  0.96685405  0.04768599    -0.04300
N120        N  0.58216531  0.94475098  0.05506385    -0.60400
Mn121      Mn  0.55773048  0.00351782  0.00493936     1.18400
C122        C  0.57124366  0.93136009  0.08595367     0.97900
C123        C  0.57331755  0.07887138  0.08458649     0.98500
N124        N  0.44654189  0.96617917  0.93878075    -0.06600
N125        N  0.43976472  0.94176166  0.91597253    -0.62900
N126        N  0.42403436  0.04350607  0.96270600    -0.05400
N127        N  0.40075953  0.06700643  0.95613357    -0.63600
N128        N  0.44786086  0.04198514  0.93727304    -0.06100
N129        N  0.44107033  0.06440293  0.91288027    -0.63200
N130        N  0.42208730  0.96769297  0.96356933    -0.05000
N131        N  0.39819466  0.94432852  0.95801076    -0.63900
Mn132      Mn  0.48926796  0.00311327  0.93665916     1.10700
C133        C  0.40975158  0.92804682  0.92842825     0.99100
C134        C  0.41183272  0.08015945  0.92516956     0.99200
N135        N  0.45031527  0.04462812  0.07316088    -0.06100
N136        N  0.44401054  0.06719649  0.09817866    -0.61500
N137        N  0.42357990  0.96967299  0.04791393    -0.05500
N138        N  0.39949902  0.94706475  0.05442846    -0.58200
N139        N  0.44884506  0.96920026  0.07244856    -0.06800
N140        N  0.44236022  0.94628818  0.09606118    -0.61100
N141        N  0.42551991  0.04530598  0.04808074    -0.05800
N142        N  0.40203129  0.06852433  0.05550210    -0.58300
Mn143      Mn  0.49167820  0.00604167  0.07356444     1.20200
Mn144      Mn  0.42283588  0.00671393  0.00552450     1.10100
Cl145      Cl  0.49036189  0.00487091  0.00516875    -0.86200
C146        C  0.41390960  0.08201973  0.08680112     0.96100
C147        C  0.41151034  0.93249364  0.08450706     0.95900
C148        C  0.27877791  0.72827179  0.71700805     0.86200
C149        C  0.25683340  0.75147104  0.69373366    -0.54000
C150        C  0.23553550  0.77273465  0.71216771     0.09100
C151        C  0.23877911  0.76951529  0.75329996     0.20100
C152        C  0.29932824  0.75073058  0.74336313    -0.54700
C153        C  0.27868308  0.77222571  0.76233173     0.09200
C154        C  0.25089994  0.71170742  0.74093178    -0.54300
C155        C  0.23017960  0.73311399  0.76019052     0.09800
H156        H  0.25773050  0.75074427  0.66469006     0.14300
H157        H  0.22237265  0.78720460  0.76884115     0.00100
H158        H  0.32785403  0.74926984  0.74727911     0.14600
H159        H  0.24765277  0.68553524  0.74394724     0.14400
N160        N  0.96168973  0.04579612  0.56074993    -0.06400
N161        N  0.95458410  0.06777964  0.58619434    -0.58500
N162        N  0.93491517  0.97181490  0.53165680    -0.06100
N163        N  0.90976196  0.94991003  0.53643206    -0.60600
N164        N  0.95921697  0.96997048  0.55709127    -0.05700
N165        N  0.95114663  0.94649780  0.57959526    -0.58500
N166        N  0.93745941  0.04702998  0.53517947    -0.05300
N167        N  0.91343880  0.06970459  0.54286801    -0.61000
C168        C  0.92462617  0.08287091  0.57458222     0.95800
C169        C  0.92044797  0.93399424  0.56607927     0.95600
N170        N  0.96083943  0.97209641  0.42310087    -0.06600
N171        N  0.95300782  0.95017602  0.39772674    -0.59100
N172        N  0.93942878  0.04807429  0.45023443    -0.04700
N173        N  0.91555897  0.07061653  0.44238971    -0.60300
N174        N  0.96429366  0.04719797  0.42588847    -0.06600
N175        N  0.95772600  0.06914166  0.40106754    -0.59400
N176        N  0.93590737  0.97294435  0.44737458    -0.04300
N177        N  0.91073097  0.95156424  0.43897652    -0.60400
Mn178      Mn  0.93614233  0.01008797  0.49113899     1.18400
C179        C  0.92169498  0.93737095  0.40795580     0.97900
C180        C  0.92732695  0.08377623  0.41169474     0.98500
N181        N  0.04331955  0.96696158  0.56007202    -0.06600
N182        N  0.04966467  0.94431802  0.58428644    -0.62900
N183        N  0.07125144  0.04162415  0.53803451    -0.05400
N184        N  0.09586820  0.06382777  0.54571994    -0.63600
N185        N  0.04621868  0.04258159  0.56224361    -0.06100
N186        N  0.05345581  0.06538866  0.58685365    -0.63200
N187        N  0.06802518  0.96610755  0.53553452    -0.05000
N188        N  0.09147443  0.94292703  0.54261486    -0.63900
Mn189      Mn  0.00259582  0.00633583  0.56107728     1.10700
C190        C  0.07966553  0.92921411  0.57301627     0.99100
C191        C  0.08451000  0.07855523  0.57630335     0.99200
N192        N  0.04786736  0.04383020  0.42861382    -0.06100
N193        N  0.05526541  0.06738024  0.40613793    -0.61500
N194        N  0.06910536  0.96703114  0.45035743    -0.05500
N195        N  0.09299267  0.94446036  0.44194129    -0.58200
N196        N  0.04475100  0.96872052  0.42494539    -0.06800
N197        N  0.05165033  0.94747885  0.39882093    -0.61100
N198        N  0.07233359  0.04238431  0.45385332    -0.05800
N199        N  0.09688473  0.06492888  0.44897814    -0.58300
Mn200      Mn  0.00449497  0.00794755  0.42480746     1.20200
Mn201      Mn  0.07109175  0.00412078  0.49449968     1.10100
Cl202      Cl  0.00358397  0.00710801  0.49291603    -0.86200
C203        C  0.08582194  0.08054852  0.41920471     0.96100
C204        C  0.08175960  0.93243895  0.40970166     0.95900
C205        C  0.71402652  0.73180437  0.28466407     0.86200
C206        C  0.73954328  0.75564613  0.30459163    -0.54000
C207        C  0.75982112  0.77421005  0.28270970     0.09100
C208        C  0.75210439  0.76818189  0.24249641     0.20100
C209        C  0.69213412  0.75432480  0.26042281    -0.54700
C210        C  0.71172438  0.77320466  0.23820397     0.09200
C211        C  0.73833218  0.71219656  0.25948375    -0.54300
C212        C  0.75781216  0.73091924  0.23712630     0.09800
H213        H  0.74222650  0.75837356  0.33327920     0.14300
H214        H  0.76810640  0.78360560  0.22453695     0.00100
H215        H  0.66338034  0.75543938  0.26100750     0.14600
H216        H  0.73976985  0.68549939  0.25909736     0.14400
C217        C  0.20312988  0.28130966  0.21323073     0.86200
C218        C  0.22623937  0.30270303  0.23837651    -0.54000
C219        C  0.24885630  0.28563165  0.25982563     0.09100
C220        C  0.24606706  0.24799093  0.25459619     0.20100
C221        C  0.22886994  0.25876417  0.19298511    -0.54700
C222        C  0.25178799  0.24173224  0.21416706     0.09200
C223        C  0.18402611  0.25804852  0.23894584    -0.54300
C224        C  0.20646280  0.24053361  0.26042737     0.09800
H225        H  0.22502998  0.32941012  0.23889280     0.14300
H226        H  0.26431245  0.23385545  0.27205675     0.00100
H227        H  0.22909830  0.25667039  0.16396401     0.14600
H228        H  0.15561357  0.25548391  0.24118089     0.14400
C229        C  0.78440417  0.27883834  0.21342883     0.86200
C230        C  0.80495193  0.25454263  0.23725631    -0.54000
C231        C  0.78400998  0.23580660  0.25830746     0.09100
C232        C  0.74414983  0.24288125  0.25397754     0.20100
C233        C  0.75812449  0.25662735  0.19259962    -0.54700
C234        C  0.73668835  0.23832630  0.21366359     0.09200
C235        C  0.76187982  0.29867490  0.24005054    -0.54300
C236        C  0.74068411  0.28018398  0.26122442     0.09800
H237        H  0.83338388  0.25150032  0.23824526     0.14300
H238        H  0.72701324  0.22740697  0.27074439     0.00100
H239        H  0.75684218  0.25520665  0.16356148     0.14600
H240        H  0.76266999  0.32536150  0.24184200     0.14400
C241        C  0.28110484  0.72618193  0.28432816     0.86200
C242        C  0.30468346  0.74573621  0.25911695    -0.54000
C243        C  0.28666106  0.76537595  0.23582067     0.09100
C244        C  0.24602693  0.76403362  0.24032779     0.20100
C245        C  0.25834574  0.75287846  0.30305972    -0.54700
C246        C  0.24021460  0.77265769  0.28000874     0.09200
C247        C  0.25423324  0.70787905  0.26017008    -0.54300
C248        C  0.23644176  0.72740555  0.23691711     0.09800
H249        H  0.33338415  0.74531753  0.26117898     0.14300
H250        H  0.23088584  0.77983869  0.22162803     0.00100
H251        H  0.25518732  0.75593212  0.33164500     0.14600
H252        H  0.24950420  0.68156893  0.26137462     0.14400
C253        C  0.21670182  0.28352524  0.77647489     0.86200
C254        C  0.19864836  0.25829095  0.75093282    -0.54000
C255        C  0.22142218  0.23778982  0.73323450     0.09100
C256        C  0.26076036  0.24394441  0.74309723     0.20100
C257        C  0.23929916  0.26212083  0.80145069    -0.54700
C258        C  0.26268523  0.24173093  0.78431669     0.09200
C259        C  0.24325027  0.30098844  0.75252523    -0.54300
C260        C  0.26658444  0.28065976  0.73535426     0.09800
H261        H  0.17048711  0.25626604  0.74595715     0.14300
H262        H  0.27953175  0.22724210  0.72916483     0.00100
H263        H  0.23701602  0.26310335  0.83039616     0.14600
H264        H  0.24373403  0.32753126  0.74967320     0.14400
C265        C  0.76140829  0.78742194  0.70992880     0.86200
C266        C  0.78371106  0.76559237  0.73447868    -0.54000
C267        C  0.76475080  0.74776708  0.75802802     0.09100
C268        C  0.72422662  0.75191707  0.75377992     0.20100
C269        C  0.73578457  0.76297720  0.69103239    -0.54700
C270        C  0.71650693  0.74419060  0.71365320     0.09200
C271        C  0.73741667  0.80760021  0.73493730    -0.54300
C272        C  0.71799455  0.78941000  0.75804937     0.09800
H273        H  0.81247215  0.76465757  0.73364984     0.14300
H274        H  0.70888766  0.73676404  0.77254082     0.00100
H275        H  0.73295955  0.75946492  0.66241376     0.14600
H276        H  0.73635631  0.83429817  0.73472733     0.14400
C277        C  0.10539423  0.10380033  0.59682479    -0.12200
C278        C  0.10013043  0.11060063  0.63371402     0.03200
C279        C  0.12249094  0.13273029  0.65210065    -0.12800
C280        C  0.14984240  0.14895864  0.63461564     0.18100
C281        C  0.15456514  0.14317010  0.59776830    -0.09800
C282        C  0.13266781  0.12059242  0.57930474    -0.02800
H283        H  0.11848539  0.13740168  0.68040567     0.04600
C284        C  0.17242095  0.17216313  0.65568885     0.20100
H285        H  0.13709771  0.11613445  0.55105097     0.09800
C286        C  0.19758185  0.15981682  0.68001068    -0.16200
C287        C  0.21544547  0.18081768  0.70438464     0.02800
C288        C  0.20798490  0.21480786  0.70471303    -0.11500
C289        C  0.18400628  0.22715145  0.67911983    -0.01500
C290        C  0.16616811  0.20621799  0.65496913    -0.06700
H291        H  0.20226498  0.13355594  0.68098467     0.05800
H292        H  0.17813293  0.25323378  0.67876804     0.09200
Br293      Br  0.19076153  0.16524572  0.57176759    -0.06400
Br294      Br  0.06412484  0.09018723  0.66163130    -0.03300
Br295      Br  0.24684123  0.16125294  0.73864017    -0.00500
Br296      Br  0.13139709  0.22499315  0.62349917    -0.04800
C297        C  0.10576593  0.10646547  0.40059847    -0.12200
C298        C  0.13651122  0.12205418  0.41503527     0.03200
C299        C  0.15452222  0.14530153  0.39477001    -0.12800
C300        C  0.14252051  0.15326422  0.36039285     0.18100
C301        C  0.11194022  0.13809892  0.34621228    -0.09800
C302        C  0.09382088  0.11516038  0.36626258    -0.02800
H303        H  0.17813493  0.15703520  0.40571582     0.04600
C304        C  0.16244784  0.17658675  0.33866697     0.20100
H305        H  0.07049317  0.10366959  0.35442777     0.09800
C306        C  0.18679031  0.16416713  0.31388079    -0.16200
C307        C  0.20207409  0.18469512  0.28873552     0.02800
C308        C  0.19300520  0.21831124  0.28821684    -0.11500
C309        C  0.16921806  0.23083440  0.31376261    -0.01500
C310        C  0.15414746  0.21027438  0.33905320    -0.06700
H311        H  0.19268540  0.13807943  0.31309219     0.05800
H312        H  0.16211736  0.25665831  0.31379203     0.09200
Br313      Br  0.09426871  0.14752676  0.29912242    -0.06400
Br314      Br  0.15557420  0.11342160  0.46184738    -0.03300
Br315      Br  0.23198965  0.16458421  0.25359998    -0.00500
Br316      Br  0.12123440  0.22867342  0.37264854    -0.04800
C317        C  0.78488310  0.80916078  0.68681055    -0.12200
C318        C  0.81016084  0.83089049  0.70308193     0.03200
C319        C  0.83220366  0.84995100  0.68199370    -0.12800
C320        C  0.82975259  0.84837913  0.64471405     0.18100
C321        C  0.80498948  0.82720374  0.62816225    -0.09800
C322        C  0.78281369  0.80801285  0.64899720    -0.02800
H323        H  0.85125710  0.86640403  0.69479631     0.04600
C324        C  0.85272584  0.86973244  0.62360834     0.20100
H325        H  0.76422733  0.79248150  0.63473383     0.09800
C326        C  0.88854659  0.86148610  0.61937903    -0.16200
C327        C  0.91114216  0.88185440  0.60026089     0.02800
C328        C  0.89773870  0.91081008  0.58500280    -0.11500
C329        C  0.86177676  0.91870986  0.58889984    -0.01500
C330        C  0.83940027  0.89868419  0.60844697    -0.06700
H331        H  0.89888908  0.83915691  0.63097259     0.05800
H332        H  0.85127314  0.94113910  0.57766835     0.09200
Br333      Br  0.80097849  0.82336397  0.57698964    -0.06400
Br334      Br  0.81667779  0.83614972  0.75404852    -0.03300
Br335      Br  0.95939859  0.86826963  0.59422200    -0.00500
Br336      Br  0.79132118  0.91262842  0.61528199    -0.04800
C337        C  0.21612319  0.79883783  0.29301344    -0.12200
C338        C  0.22896220  0.82510716  0.31448174     0.03200
C339        C  0.20517918  0.84666007  0.33113725    -0.12800
C340        C  0.16846739  0.84232461  0.32699246     0.18100
C341        C  0.15563182  0.81709401  0.30398203    -0.09800
C342        C  0.17951480  0.79570569  0.28700847    -0.02800
H343        H  0.21532680  0.86643819  0.34814313     0.04600
C344        C  0.14433837  0.86381631  0.34788775     0.20100
H345        H  0.16937686  0.77571975  0.27043130     0.09800
C346        C  0.12450124  0.88799697  0.33044932    -0.16200
C347        C  0.10359809  0.91034057  0.34987437     0.02800
C348        C  0.10208854  0.90848867  0.38763724    -0.11500
C349        C  0.12180237  0.88400813  0.40491571    -0.01500
C350        C  0.14270232  0.86177576  0.38541381    -0.06700
H351        H  0.12615650  0.89011635  0.30165612     0.05800
H352        H  0.12102284  0.88217983  0.43378049     0.09200
Br353      Br  0.10585641  0.80945617  0.29699403    -0.06400
Br354      Br  0.27877182  0.83246080  0.32173762    -0.03300
Br355      Br  0.08081509  0.94453579  0.32326799    -0.00500
Br356      Br  0.16848125  0.82885040  0.41113078    -0.04800
C357        C  0.90010961  0.91302212  0.38695653    -0.12200
C358        C  0.90819647  0.90265694  0.35151097     0.03200
C359        C  0.88544651  0.88086849  0.33298495    -0.12800
C360        C  0.85486987  0.86880613  0.34905377     0.18100
C361        C  0.84706014  0.87854431  0.38433658    -0.09800
C362        C  0.86940093  0.90049647  0.40282160    -0.02800
H363        H  0.89179661  0.87301285  0.30595429     0.04600
C364        C  0.83233896  0.84461791  0.32955871     0.20100
H365        H  0.86254653  0.90776634  0.42988560     0.09800
C366        C  0.83440158  0.81157413  0.33918106    -0.16200
C367        C  0.81181370  0.78812722  0.32350886     0.02800
C368        C  0.78664974  0.79764677  0.29729128    -0.11500
C369        C  0.78565886  0.83052797  0.28655241    -0.01500
C370        C  0.80805816  0.85407191  0.30273971    -0.06700
H371        H  0.85332437  0.80411455  0.35951569     0.05800
H372        H  0.76638713  0.83817716  0.26664895     0.09200
Br373      Br  0.80586683  0.86270900  0.40825744    -0.06400
Br374      Br  0.94929309  0.91681989  0.32615442    -0.03300
Br375      Br  0.81753090  0.74343988  0.33853066    -0.00500
Br376      Br  0.80305823  0.89910163  0.28918975    -0.04800
C377        C  0.90632984  0.10750034  0.39029702    -0.12200
C378        C  0.91524145  0.11643632  0.35498873     0.03200
C379        C  0.89275291  0.13722203  0.33573730    -0.12800
C380        C  0.86142780  0.14930695  0.35073296     0.18100
C381        C  0.85244508  0.14063869  0.38560234    -0.09800
C382        C  0.87487241  0.12013352  0.40512985    -0.02800
H383        H  0.89967371  0.14398120  0.30878197     0.04600
C384        C  0.83889308  0.17153018  0.32968843     0.20100
H385        H  0.86724029  0.11369114  0.43195089     0.09800
C386        C  0.81426532  0.15829284  0.30507435    -0.16200
C387        C  0.79448412  0.17883863  0.28277475     0.02800
C388        C  0.79985764  0.21314035  0.28459232    -0.11500
C389        C  0.82378622  0.22626676  0.31010495    -0.01500
C390        C  0.84300125  0.20578527  0.33276332    -0.06700
H391        H  0.81097195  0.13186672  0.30274601     0.05800
H392        H  0.82796008  0.25261140  0.31195530     0.09200
Br393      Br  0.80940131  0.15576589  0.40717458    -0.06400
Br394      Br  0.95672848  0.10112346  0.33040814    -0.03300
Br395      Br  0.76261580  0.15836702  0.24906892    -0.00500
Br396      Br  0.87538824  0.22547917  0.36675657    -0.04800
C397        C  0.21026392  0.79484213  0.69327027    -0.12200
C398        C  0.18690089  0.78261345  0.66623097     0.03200
C399        C  0.16528348  0.80423443  0.64706123    -0.12800
C400        C  0.16642834  0.83813467  0.65405962     0.18100
C401        C  0.18922275  0.85042045  0.68125654    -0.09800
C402        C  0.21065203  0.82878406  0.70087466    -0.02800
H403        H  0.14757149  0.79456447  0.62641485     0.04600
C404        C  0.14372020  0.86028289  0.63258370     0.20100
H405        H  0.22843303  0.83861528  0.72132189     0.09800
C406        C  0.10976120  0.86841174  0.64460788    -0.16200
C407        C  0.08787188  0.88994603  0.62544220     0.02800
C408        C  0.10008107  0.90403651  0.59338744    -0.11500
C409        C  0.13387104  0.89480925  0.58100172    -0.01500
C410        C  0.15550201  0.87318852  0.60019710    -0.06700
H411        H  0.10031704  0.85806329  0.66925090     0.05800
H412        H  0.14395395  0.90483671  0.55647855     0.09200
Br413      Br  0.19265447  0.89670645  0.69140170    -0.06400
Br414      Br  0.18207512  0.73650823  0.65503854    -0.03300
Br415      Br  0.04190020  0.89838702  0.64504597    -0.00500
Br416      Br  0.20124740  0.86227287  0.58153025    -0.04800
C417        C  0.71139233  0.21390271  0.19839865    -0.12200
C418        C  0.67491867  0.21462477  0.20606635     0.03200
C419        C  0.65208139  0.19164867  0.18959433    -0.12800
C420        C  0.66520361  0.16685899  0.16667607     0.18100
C421        C  0.70203499  0.16527608  0.16056907    -0.09800
C422        C  0.72446911  0.18921076  0.17550525    -0.02800
H423        H  0.62384733  0.19365975  0.19402789     0.04600
C424        C  0.64016352  0.14509185  0.14646430     0.20100
H425        H  0.75258079  0.18801352  0.17001469     0.09800
C426        C  0.64214995  0.14411712  0.10905545    -0.16200
C427        C  0.62098439  0.12282982  0.08844391     0.02800
C428        C  0.59537033  0.10306897  0.10502264    -0.11500
C429        C  0.59205669  0.10528684  0.14244954    -0.01500
C430        C  0.61447297  0.12564167  0.16323533    -0.06700
H431        H  0.66105329  0.15961558  0.09571987     0.05800
H432        H  0.57290198  0.09011997  0.15583987     0.09200
Br433      Br  0.72354470  0.13029963  0.13322979    -0.06400
Br434      Br  0.65440372  0.24759667  0.23668881    -0.03300
Br435      Br  0.62945793  0.12225714  0.03803718    -0.00500
Br436      Br  0.61027245  0.12414188  0.21430698    -0.04800
C437        C  0.39437687  0.10760352  0.10737817    -0.12200
C438        C  0.38874766  0.10523324  0.14458745     0.03200
C439        C  0.36727335  0.12837064  0.16223407    -0.12800
C440        C  0.35163153  0.15436235  0.14361776     0.18100
C441        C  0.35913480  0.15798170  0.10705552    -0.09800
C442        C  0.37967833  0.13433072  0.08910374    -0.02800
H443        H  0.36191939  0.12554252  0.19043383     0.04600
C444        C  0.32610648  0.17627980  0.16230796     0.20100
H445        H  0.38439010  0.13694261  0.06076312     0.09800
C446        C  0.33826194  0.19892022  0.18843425    -0.16200
C447        C  0.31463265  0.22015103  0.20614806     0.02800
C448        C  0.27798906  0.21845930  0.19827085    -0.11500
C449        C  0.26595912  0.19537452  0.17245454    -0.01500
C450        C  0.28953438  0.17443730  0.15461619    -0.06700
H451        H  0.36636795  0.20063020  0.19441031     0.05800
H452        H  0.23793109  0.19365323  0.16606228     0.09200
Br453      Br  0.34249422  0.19522394  0.08087695    -0.06400
Br454      Br  0.40720776  0.06969378  0.17233510    -0.03300
Br455      Br  0.33447796  0.25274038  0.23809179    -0.00500
Br456      Br  0.27038548  0.14344889  0.12021763    -0.04800
C457        C  0.39245993  0.90664945  0.10446551    -0.12200
C458        C  0.35806347  0.89512353  0.09496748     0.03200
C459        C  0.34112307  0.87224681  0.11657727    -0.12800
C460        C  0.35764530  0.86031537  0.14752169     0.18100
C461        C  0.39206311  0.87105375  0.15653250    -0.09800
C462        C  0.40904418  0.89393188  0.13519066    -0.02800
H463        H  0.31479875  0.86367634  0.10922309     0.04600
C464        C  0.33893726  0.83612621  0.16964881     0.20100
H465        H  0.43535939  0.90206734  0.14309596     0.09800
C466        C  0.35137972  0.80371176  0.17053012    -0.16200
C467        C  0.33487534  0.78015998  0.19147166     0.02800
C468        C  0.30473829  0.78883565  0.21185915    -0.11500
C469        C  0.29213150  0.82133935  0.21050942    -0.01500
C470        C  0.30905258  0.84492269  0.18986495    -0.06700
H471        H  0.37423123  0.79672854  0.15482547     0.05800
H472        H  0.26961678  0.82877074  0.22645016     0.09200
Br473      Br  0.41655278  0.85616559  0.19852636    -0.06400
Br474      Br  0.33200466  0.90915349  0.05347071    -0.03300
Br475      Br  0.35461118  0.73669174  0.18947045    -0.00500
Br476      Br  0.29160000  0.88923068  0.19161217    -0.04800
C477        C  0.69587082  0.80550101  0.78622892    -0.12200
C478        C  0.66024570  0.79672660  0.79201888     0.03200
C479        C  0.64013165  0.81430787  0.81729034    -0.12800
C480        C  0.65490133  0.84058571  0.83729276     0.18100
C481        C  0.69084366  0.84844402  0.83264501    -0.09800
C482        C  0.71077518  0.83129798  0.80704560    -0.02800
H483        H  0.61242876  0.80819054  0.82051292     0.04600
C484        C  0.63167647  0.86150186  0.86011732     0.20100
H485        H  0.73821449  0.83816425  0.80337344     0.09800
C486        C  0.63490352  0.86087578  0.89755477    -0.16200
C487        C  0.61424315  0.88165165  0.91936497     0.02800
C488        C  0.58931555  0.90329865  0.90367734    -0.11500
C489        C  0.58572286  0.90319297  0.86619425    -0.01500
C490        C  0.60688214  0.88297561  0.84453423    -0.06700
H491        H  0.65388341  0.84441567  0.90982826     0.05800
H492        H  0.56729231  0.91987738  0.85347038     0.09200
Br493      Br  0.71347419  0.88335263  0.85949142    -0.06400
Br494      Br  0.63651607  0.76331329  0.76399588    -0.03300
Br495      Br  0.62093127  0.87857475  0.97022225    -0.00500
Br496      Br  0.60278087  0.88723370  0.79358808    -0.04800
C497        C  0.39199695  0.10566955  0.90497098    -0.12200
C498        C  0.37157233  0.13030829  0.92218062     0.03200
C499        C  0.35182926  0.15262370  0.90182296    -0.05600
C500        C  0.35099817  0.15056660  0.86426326     0.18100
C501        C  0.37192396  0.12638779  0.84704065    -0.09800
C502        C  0.39236595  0.10454344  0.86734842    -0.02800
H503        H  0.33666728  0.17158157  0.91545916     0.04600
C504        C  0.32817365  0.17376038  0.84372192     0.20100
H505        H  0.40766097  0.08577787  0.85356071     0.09800
C506        C  0.34367501  0.19516764  0.81929836    -0.16200
C507        C  0.32303665  0.21737511  0.79967196     0.02800
C508        C  0.28597798  0.21855263  0.80424322    -0.11500
C509        C  0.27059056  0.19761946  0.82919419    -0.01500
C510        C  0.29118713  0.17544356  0.84879630    -0.06700
H511        H  0.37213973  0.19493035  0.81586199     0.05800
H512        H  0.24220467  0.19825869  0.83318416     0.09200
Br513      Br  0.37189141  0.12067634  0.79593738    -0.06400
Br514      Br  0.37023096  0.13566908  0.97329287    -0.03300
Br515      Br  0.34750498  0.24712678  0.76943656    -0.00500
Br516      Br  0.26707369  0.14741617  0.88135553    -0.04800
C517        C  0.69459276  0.79761821  0.21447082    -0.12200
C518        C  0.69701014  0.79574518  0.17686727     0.03200
C519        C  0.67743396  0.81754109  0.15566599    -0.12800
C520        C  0.65554809  0.84165365  0.17130034     0.18100
C521        C  0.65358858  0.84375494  0.20892775    -0.09800
C522        C  0.67288270  0.82183498  0.23004313    -0.02800
H523        H  0.67883685  0.81533323  0.12678667     0.04600
C524        C  0.63426962  0.86380848  0.14812898     0.20100
H525        H  0.67075065  0.82355079  0.25890616     0.09800
C526        C  0.59710805  0.86243515  0.14913755    -0.16200
C527        C  0.57610030  0.88375682  0.12880388     0.02800
C528        C  0.59222723  0.90703468  0.10660706    -0.11500
C529        C  0.62944531  0.90758239  0.10467695    -0.01500
C530        C  0.65041572  0.88634733  0.12519681    -0.06700
H531        H  0.58434898  0.84465528  0.16596876     0.05800
H532        H  0.64239875  0.92520421  0.08780900     0.09200
Br533      Br  0.62542742  0.87645782  0.23293777    -0.06400
Br534      Br  0.72453324  0.76269836  0.15288674    -0.03300
Br535      Br  0.52561341  0.87856739  0.13113815    -0.00500
Br536      Br  0.70100147  0.89013793  0.12223832    -0.04800
C537        C  0.38953888  0.90164660  0.90928817    -0.12200
C538        C  0.40612781  0.87860613  0.88618492     0.03200
C539        C  0.38550039  0.85717405  0.86485686    -0.12800
C540        C  0.34839946  0.85773334  0.86645046     0.18100
C541        C  0.33193410  0.87876301  0.89154402    -0.09800
C542        C  0.35245137  0.90058657  0.91255467    -0.02800
H543        H  0.39847616  0.84020293  0.84656593     0.04600
C544        C  0.32765024  0.83633466  0.84140169     0.20100
H545        H  0.33919306  0.91742131  0.93076553     0.09800
C546        C  0.32811168  0.80218919  0.84594657    -0.16200
C547        C  0.31124892  0.78106111  0.82112837     0.02800
C548        C  0.29368121  0.79403056  0.79093660    -0.11500
C549        C  0.29236302  0.82821511  0.78691807    -0.01500
C550        C  0.30938282  0.84935386  0.81168833    -0.06700
H551        H  0.34199443  0.79192834  0.86870929     0.05800
H552        H  0.27925618  0.83843963  0.76371418     0.09200
Br553      Br  0.28161050  0.87826334  0.89814530    -0.06400
Br554      Br  0.45670879  0.87395282  0.88368907    -0.03300
Br555      Br  0.31247943  0.73473197  0.83005277    -0.00500
Br556      Br  0.30897908  0.89563153  0.80255241    -0.04800
C557        C  0.90378037  0.10716898  0.59613673    -0.12200
C558        C  0.91973418  0.12841774  0.62200265     0.03200
C559        C  0.89866912  0.14893860  0.64356630    -0.12800
C560        C  0.86161242  0.14885256  0.64018394     0.18100
C561        C  0.84562279  0.12852305  0.61368641    -0.09800
C562        C  0.86665051  0.10814569  0.59184941    -0.02800
H563        H  0.91127369  0.16480535  0.66352660     0.04600
C564        C  0.84021931  0.16899509  0.66562785     0.20100
H565        H  0.85371475  0.09211237  0.57227883     0.09800
C566        C  0.82184449  0.19684696  0.65370180    -0.16200
C567        C  0.80097360  0.21585152  0.67715664     0.02800
C568        C  0.79813432  0.20697774  0.71347595    -0.11500
C569        C  0.81739723  0.17951869  0.72533312    -0.01500
C570        C  0.83809660  0.16064297  0.70192074    -0.06700
H571        H  0.82339929  0.20357872  0.62584607     0.05800
H572        H  0.81590464  0.17230550  0.75304279     0.09200
Br573      Br  0.79507325  0.12622033  0.60790076    -0.06400
Br574      Br  0.97012350  0.13159410  0.62860639    -0.03300
Br575      Br  0.77555184  0.25195845  0.65688757    -0.00500
Br576      Br  0.86155714  0.12259884  0.72050282    -0.04800
C577        C  0.59064857  0.10043757  0.90582730    -0.12200
C578        C  0.60066694  0.13062286  0.92184189     0.03200
C579        C  0.62495910  0.15089160  0.90491675    -0.12800
C580        C  0.63851693  0.14199456  0.87135148     0.18100
C581        C  0.62718060  0.11251499  0.85449990    -0.09800
C582        C  0.60354086  0.09184586  0.87189855    -0.02800
H583        H  0.63256113  0.17409561  0.91746912     0.04600
C584        C  0.66230637  0.16486781  0.85302862     0.20100
H585        H  0.59568121  0.06878535  0.85919243     0.09800
C586        C  0.69837667  0.15745021  0.84976915    -0.16200
C587        C  0.72090668  0.17781782  0.83046674     0.02800
C588        C  0.70690344  0.20542034  0.81219596    -0.11500
C589        C  0.67125852  0.21405995  0.81878660    -0.01500
C590        C  0.64914382  0.19407768  0.83861812    -0.06700
H591        H  0.70903386  0.13571461  0.86236383     0.05800
H592        H  0.65997794  0.23668582  0.80934857     0.09200
Br593      Br  0.64248778  0.10013261  0.80737284    -0.06400
Br594      Br  0.57892276  0.14661610  0.96477636    -0.03300
Br595      Br  0.77046466  0.16677996  0.83155507    -0.00500
Br596      Br  0.60070435  0.20740874  0.84452016    -0.04800
C597        C  0.08865474  0.42190559  0.08609870    -0.12200
C598        C  0.10576400  0.39588317  0.06783828     0.03200
C599        C  0.12197064  0.37074669  0.08725733    -0.12800
C600        C  0.12119939  0.37096496  0.12476870     0.18100
C601        C  0.10404202  0.39686338  0.14305259    -0.09800
C602        C  0.08767699  0.42184125  0.12369194    -0.02800
H603        H  0.13526789  0.35091905  0.07306494     0.04600
C604        C  0.14097582  0.34561733  0.14451732     0.20100
H605        H  0.07474917  0.44171437  0.13817457     0.09800
C606        C  0.17793123  0.34661278  0.14430746    -0.16200
C607        C  0.19802426  0.32521148  0.16509388     0.02800
C608        C  0.18105631  0.30236658  0.18768272    -0.11500
C609        C  0.14370415  0.30029862  0.18589559    -0.01500
C610        C  0.12381561  0.32147462  0.16439894    -0.06700
H611        H  0.19128062  0.36470108  0.12832360     0.05800
H612        H  0.12928407  0.28244612  0.20086628     0.09200
Br613      Br  0.10394635  0.40010003  0.19440242    -0.06400
Br614      Br  0.10599864  0.39226593  0.01663719    -0.03300
Br615      Br  0.24867718  0.32941805  0.16120635    -0.00500
Br616      Br  0.07328468  0.31621420  0.16244315    -0.04800
C617        C  0.09199775  0.61822572  0.10207422    -0.12200
C618        C  0.09407170  0.61401347  0.13949750     0.03200
C619        C  0.11651031  0.63413359  0.16027548    -0.12800
C620        C  0.13593913  0.65956784  0.14488831     0.18100
C621        C  0.13316305  0.66420353  0.10759444    -0.09800
C622        C  0.11181524  0.64326437  0.08657425    -0.02800
H623        H  0.11922099  0.62952332  0.18863613     0.04600
C624        C  0.16066391  0.67934450  0.16774242     0.20100
H625        H  0.11031800  0.64686367  0.05793763     0.09800
C626        C  0.19654061  0.68075697  0.15833466    -0.16200
C627        C  0.22101964  0.69821201  0.17947342     0.02800
C628        C  0.21017215  0.71355050  0.21146008    -0.11500
C629        C  0.17455730  0.71194264  0.22134136    -0.01500
C630        C  0.14966980  0.69539504  0.19960586    -0.06700
H631        H  0.20570147  0.66786948  0.13457524     0.05800
H632        H  0.16620644  0.72287304  0.24645262     0.09200
Br633      Br  0.15687660  0.69930004  0.08386662    -0.06400
Br634      Br  0.06901081  0.58013089  0.16394786    -0.03300
Br635      Br  0.26908446  0.69993638  0.16382922    -0.00500
Br636      Br  0.10122452  0.69592658  0.21479105    -0.04800
C637        C  0.88971775  0.61678087  0.09828269    -0.12200
C638        C  0.88800852  0.61382118  0.13584325     0.03200
C639        C  0.86595018  0.63474475  0.15549728    -0.12800
C640        C  0.84605750  0.65916472  0.13858746     0.18100
C641        C  0.84890270  0.66318136  0.10145969    -0.09800
C642        C  0.87006656  0.64158272  0.08146001    -0.02800
H643        H  0.86404944  0.63180558  0.18417768     0.04600
C644        C  0.82271159  0.68009382  0.16059831     0.20100
H645        H  0.87163932  0.64449885  0.05276243     0.09800
C646        C  0.83801081  0.70363178  0.18380474    -0.16200
C647        C  0.81724583  0.72146559  0.20804429     0.02800
C648        C  0.78051292  0.71553709  0.20947939    -0.11500
C649        C  0.76519651  0.69225167  0.18575651    -0.01500
C650        C  0.78591940  0.67469385  0.16130019    -0.06700
H651        H  0.86642488  0.70745136  0.18371506     0.05800
H652        H  0.73699688  0.68736105  0.18667338     0.09200
Br653      Br  0.82556693  0.69860835  0.07750956    -0.06400
Br654      Br  0.91334934  0.58080796  0.16198182    -0.03300
Br655      Br  0.84122324  0.75110919  0.24042968    -0.00500
Br656      Br  0.76315749  0.64234875  0.13090239    -0.04800
C657        C  0.20505073  0.72109724  0.78771802    -0.12200
C658        C  0.16967533  0.73225600  0.79035206     0.03200
C659        C  0.14644674  0.71735723  0.81432132    -0.12800
C660        C  0.15772839  0.69133277  0.83589358     0.18100
C661        C  0.19315503  0.68069415  0.83382766    -0.09800
C662        C  0.21642292  0.69577598  0.81035897    -0.02800
H663        H  0.11904498  0.72526425  0.81516407     0.04600
C664        C  0.13147061  0.67265785  0.85676930     0.20100
H665        H  0.24343059  0.68684236  0.80899009     0.09800
C666        C  0.10743210  0.65221402  0.83820580    -0.16200
C667        C  0.08526853  0.63069592  0.85636016     0.02800
C668        C  0.08720299  0.62902751  0.89418771    -0.11500
C669        C  0.11028206  0.65065732  0.91279945    -0.01500
C670        C  0.13187862  0.67267118  0.89445717    -0.06700
H671        H  0.10684539  0.65212506  0.80920540     0.05800
H672        H  0.11167792  0.65034536  0.94176052     0.09200
Br673      Br  0.21025925  0.64358312  0.86000881    -0.06400
Br674      Br  0.15026119  0.76511404  0.75961337    -0.03300
Br675      Br  0.05538391  0.60274020  0.82706203    -0.00500
Br676      Br  0.16132065  0.70248898  0.92178029    -0.04800
C677        C  0.78294223  0.72606852  0.78394932    -0.12200
C678        C  0.77998802  0.73054611  0.82130981     0.03200
C679        C  0.79993355  0.71095076  0.84449790    -0.12800
C680        C  0.82329980  0.68708717  0.83106559     0.18100
C681        C  0.82594104  0.68227264  0.79379290    -0.09800
C682        C  0.80629011  0.70200756  0.77066666    -0.02800
H683        H  0.79787006  0.71486823  0.87315080     0.04600
C684        C  0.84446437  0.66714202  0.85616881     0.20100
H685        H  0.80904803  0.69841143  0.74203530     0.09800
C686        C  0.82725127  0.64423813  0.87743896    -0.16200
C687        C  0.84662295  0.62264533  0.89888297     0.02800
C688        C  0.88414472  0.62348501  0.89867868    -0.11500
C689        C  0.90115792  0.64756613  0.87861402    -0.01500
C690        C  0.88162656  0.66974481  0.85810890    -0.06700
H691        H  0.79859693  0.64251625  0.87653173     0.05800
H692        H  0.92981582  0.64919880  0.87891719     0.09200
Br693      Br  0.85530159  0.64851889  0.77316694    -0.06400
Br694      Br  0.75208050  0.76481337  0.84242721    -0.03300
Br695      Br  0.81981504  0.59145352  0.92550110    -0.00500
Br696      Br  0.90667793  0.70364948  0.83383343    -0.04800
C697        C  0.19290660  0.30820210  0.79669628    -0.12200
C698        C  0.20791533  0.33229059  0.82044613     0.03200
C699        C  0.18617887  0.35498665  0.83827477    -0.12800
C700        C  0.14942844  0.35484841  0.83293770     0.18100
C701        C  0.13423172  0.33164335  0.80921650    -0.09800
C702        C  0.15566293  0.30858619  0.79167899    -0.02800
H703        H  0.19808479  0.37316567  0.85623675     0.04600
C704        C  0.12747058  0.37946585  0.85198619     0.20100
H705        H  0.14219170  0.29149383  0.77404102     0.09800
C706        C  0.11089175  0.40449183  0.83259799    -0.16200
C707        C  0.09067223  0.42865972  0.84996337     0.02800
C708        C  0.08791804  0.42858599  0.88763042    -0.11500
C709        C  0.10421862  0.40329855  0.90685304    -0.01500
C710        C  0.12331623  0.37852448  0.88930410    -0.06700
H711        H  0.11385469  0.40527115  0.80382149     0.05800
H712        H  0.10162793  0.40253598  0.93563476     0.09200
Br713      Br  0.08402726  0.33018092  0.80024120    -0.06400
Br714      Br  0.25802201  0.33657862  0.82956500    -0.03300
Br715      Br  0.06914912  0.46175696  0.82079956    -0.00500
Br716      Br  0.14186221  0.34311025  0.91712916    -0.04800
C717        C  0.90002017  0.41940701  0.08839227    -0.12200
C718        C  0.89888321  0.42039957  0.12618065     0.03200
C719        C  0.88139820  0.39561734  0.14435156    -0.12800
C720        C  0.86478826  0.36963621  0.12567924     0.18100
C721        C  0.86560932  0.36866965  0.08800409    -0.09800
C722        C  0.88307820  0.39352759  0.06964562    -0.02800
H723        H  0.88010563  0.39695135  0.17329407     0.04600
C724        C  0.84520944  0.34493809  0.14621660     0.20100
H725        H  0.88368113  0.39249220  0.04067043     0.09800
C726        C  0.80818770  0.34453174  0.14435628    -0.16200
C727        C  0.78847915  0.32342149  0.16556198     0.02800
C728        C  0.80586300  0.30139967  0.18919011    -0.11500
C729        C  0.84332785  0.30217530  0.19060955    -0.01500
C730        C  0.86277617  0.32368016  0.16970519    -0.06700
H731        H  0.79446378  0.36143951  0.12689015     0.05800
H732        H  0.85843524  0.28695064  0.20835935     0.09200
Br733      Br  0.84385349  0.33360356  0.06068833    -0.06400
Br734      Br  0.91778813  0.45623329  0.15467843    -0.03300
Br735      Br  0.73777792  0.32737610  0.16146118    -0.00500
Br736      Br  0.91351978  0.32318047  0.17439267    -0.04800
C737        C  0.89825239  0.42099321  0.88955805    -0.12200
C738        C  0.91063482  0.40752471  0.85671105     0.03200
C739        C  0.89180715  0.38195568  0.83953272    -0.12800
C740        C  0.86086230  0.36932553  0.85433011     0.18100
C741        C  0.84848196  0.38251093  0.88681080    -0.09800
C742        C  0.86711577  0.40796247  0.90412582    -0.02800
H743        H  0.90130626  0.37186296  0.81438703     0.04600
C744        C  0.84139389  0.34272315  0.83529987     0.20100
H745        H  0.85683804  0.41775322  0.92906211     0.09800
C746        C  0.84643732  0.31000819  0.84544586    -0.16200
C747        C  0.82680903  0.28449192  0.82910211     0.02800
C748        C  0.80181857  0.29163031  0.80183084    -0.11500
C749        C  0.79775387  0.32432565  0.79144567    -0.01500
C750        C  0.81691468  0.34980694  0.80792840    -0.06700
H751        H  0.86535176  0.30439720  0.86651442     0.05800
H752        H  0.77819776  0.33050466  0.77152066     0.09200
Br753      Br  0.80568548  0.36701302  0.90800405    -0.06400
Br754      Br  0.95273066  0.42211707  0.83331342    -0.03300
Br755      Br  0.83575417  0.24053383  0.84464421    -0.00500
Br756      Br  0.80721233  0.39407407  0.79377940    -0.04800
C757        C  0.59835937  0.59214403  0.60155859    -0.12200
C758        C  0.59484546  0.59651593  0.63902207     0.03200
C759        C  0.61149606  0.62298863  0.65670313    -0.12800
C760        C  0.63260852  0.64518431  0.63823025     0.18100
C761        C  0.63738874  0.64020367  0.60110901    -0.09800
C762        C  0.62002480  0.61411288  0.58308952    -0.02800
H763        H  0.60867561  0.62582594  0.68541352     0.04600
C764        C  0.65185668  0.67119846  0.65912932     0.20100
H765        H  0.62379704  0.61081125  0.55455916     0.09800
C766        C  0.67651239  0.66165663  0.68535828    -0.16200
C767        C  0.69607270  0.68498643  0.70526383     0.02800
C768        C  0.69150437  0.71881668  0.69890143    -0.11500
C769        C  0.66559170  0.72839615  0.67373425    -0.01500
C770        C  0.64549310  0.70500398  0.65433769    -0.06700
H771        H  0.68114172  0.63574120  0.68983982     0.05800
H772        H  0.66136648  0.75428514  0.66876206     0.09200
Br773      Br  0.66930790  0.66673651  0.57432794    -0.06400
Br774      Br  0.57080305  0.56577548  0.66872912    -0.03300
Br775      Br  0.73014484  0.66858267  0.73869902    -0.00500
Br776      Br  0.60913099  0.72041422  0.62244686    -0.04800
C777        C  0.40587493  0.38896643  0.60383654    -0.12200
C778        C  0.36839972  0.38796334  0.60322045     0.03200
C779        C  0.35055009  0.36610930  0.62502769    -0.12800
C780        C  0.36904443  0.34548458  0.64827137     0.18100
C781        C  0.40631635  0.34630621  0.64916872    -0.09800
C782        C  0.42443689  0.36792295  0.62698649    -0.02800
H783        H  0.32182380  0.36603623  0.62484842     0.04600
C784        C  0.34807669  0.32525696  0.67269923     0.20100
H785        H  0.45313519  0.36847911  0.62806578     0.09800
C786        C  0.32963486  0.29786395  0.65880711    -0.16200
C787        C  0.30359648  0.28227913  0.67885586     0.02800
C788        C  0.29590010  0.29404679  0.71368610    -0.11500
C789        C  0.31549127  0.32075242  0.72791489    -0.01500
C790        C  0.34112278  0.33646863  0.70770544    -0.06700
H791        H  0.33416735  0.28972528  0.63147843     0.05800
H792        H  0.31014379  0.33005689  0.75465423     0.09200
Br793      Br  0.43329472  0.31879976  0.68052703    -0.06400
Br794      Br  0.33935709  0.41780430  0.57645105    -0.03300
Br795      Br  0.27683698  0.24803698  0.65525854    -0.00500
Br796      Br  0.36363362  0.37496478  0.72784061    -0.04800
C797        C  0.60372653  0.38659467  0.40341188    -0.12200
C798        C  0.64020282  0.38100470  0.41070446     0.03200
C799        C  0.65963440  0.36023988  0.38818629    -0.12800
C800        C  0.64375215  0.34480703  0.35837033     0.18100
C801        C  0.60711700  0.34852980  0.35229888    -0.09800
C802        C  0.58748598  0.36942922  0.37461541    -0.02800
H803        H  0.68780306  0.35719729  0.39309392     0.04600
C804        C  0.66666879  0.32705181  0.33278861     0.20100
H805        H  0.55950691  0.37273644  0.36892682     0.09800
C806        C  0.68569493  0.29943240  0.34409828    -0.16200
C807        C  0.71032850  0.28400809  0.32168045     0.02800
C808        C  0.71527971  0.29556787  0.28664983    -0.11500
C809        C  0.69618470  0.32340836  0.27561177    -0.01500
C810        C  0.67287611  0.33963268  0.29861658    -0.06700
H811        H  0.68230202  0.29060684  0.37103178     0.05800
H812        H  0.69990006  0.33308813  0.24910574     0.09200
Br813      Br  0.58293958  0.32588237  0.31368975    -0.06400
Br814      Br  0.66669628  0.40213278  0.44890013    -0.03300
Br815      Br  0.73903257  0.25026554  0.34243137    -0.00500
Br816      Br  0.65295716  0.38065438  0.28342807    -0.04800
C817        C  0.30285077  0.70276479  0.30766480    -0.12200
C818        C  0.32165297  0.67589383  0.29195074     0.03200
C819        C  0.34108095  0.65449688  0.31336692    -0.12800
C820        C  0.34285866  0.65907441  0.35040564     0.18100
C821        C  0.32541606  0.68592804  0.36634805    -0.09800
C822        C  0.30573549  0.70745700  0.34516014    -0.02800
H823        H  0.35487004  0.63392283  0.30101757     0.04600
C824        C  0.36325044  0.63533759  0.37164848     0.20100
H825        H  0.29357525  0.72802215  0.35872098     0.09800
C826        C  0.40034305  0.63636547  0.37102907    -0.16200
C827        C  0.42057402  0.61264384  0.38861829     0.02800
C828        C  0.40350825  0.58731307  0.40712840    -0.11500
C829        C  0.36630491  0.58681927  0.40826288    -0.01500
C830        C  0.34616129  0.61037692  0.39041145    -0.06700
H831        H  0.41356478  0.65560363  0.35658116     0.05800
H832        H  0.35276764  0.56743292  0.42217085     0.09200
Br833      Br  0.32850536  0.69456651  0.41692956    -0.06400
Br834      Br  0.32254976  0.66609069  0.24145723    -0.03300
Br835      Br  0.47114831  0.61713046  0.38769980    -0.00500
Br836      Br  0.29547178  0.60654860  0.39070606    -0.04800
C837        C  0.59882656  0.58782772  0.40479830    -0.12200
C838        C  0.63593067  0.59231602  0.40790243     0.03200
C839        C  0.65223982  0.61760962  0.38942888    -0.12800
C840        C  0.63235408  0.63913698  0.36830417     0.18100
C841        C  0.59539043  0.63494899  0.36545629    -0.09800
C842        C  0.57904639  0.60924500  0.38331139    -0.02800
H843        H  0.68078884  0.62025421  0.39115144     0.04600
C844        C  0.65110050  0.66445459  0.34789650     0.20100
H845        H  0.55063322  0.60628368  0.38076761     0.09800
C846        C  0.64964123  0.66303042  0.31049913    -0.16200
C847        C  0.66864376  0.68520018  0.29004766     0.02800
C848        C  0.69087655  0.70917322  0.30700930    -0.11500
C849        C  0.69131996  0.71078997  0.34482916    -0.01500
C850        C  0.67181877  0.68882650  0.36507923    -0.06700
H851        H  0.63384526  0.64419270  0.29705529     0.05800
H852        H  0.70645100  0.72892783  0.35961197     0.09200
Br853      Br  0.56593844  0.66434779  0.33863053    -0.06400
Br854      Br  0.66662082  0.56397922  0.43483641    -0.03300
Br855      Br  0.66293273  0.68049272  0.23894967    -0.00500
Br856      Br  0.67386722  0.69367925  0.41629580    -0.04800
C857        C  0.60867181  0.39315608  0.60411734    -0.12200
C858        C  0.59792313  0.38070552  0.63750575     0.03200
C859        C  0.62091572  0.36071879  0.65706415    -0.12800
C860        C  0.65450401  0.35255903  0.64423102     0.18100
C861        C  0.66523714  0.36432164  0.61098870    -0.09800
C862        C  0.64244288  0.38444628  0.59125702    -0.02800
H863        H  0.61250154  0.35133665  0.68256399     0.04600
C864        C  0.67713803  0.33066426  0.66565661     0.20100
H865        H  0.65138706  0.39343117  0.56579712     0.09800
C866        C  0.66977624  0.29694011  0.66529527    -0.16200
C867        C  0.68795945  0.27578714  0.68816149     0.02800
C868        C  0.71398321  0.28845799  0.71224778    -0.11500
C869        C  0.72239227  0.32197928  0.71101855    -0.01500
C870        C  0.70404935  0.34316302  0.68836235    -0.06700
H871        H  0.64929733  0.28713939  0.64755288     0.05800
H872        H  0.74221599  0.33238710  0.72875888     0.09200
Br873      Br  0.71055103  0.35308183  0.59149327    -0.06400
Br874      Br  0.55251537  0.38907091  0.65861052    -0.03300
Br875      Br  0.67670562  0.22976444  0.68445050    -0.00500
Br876      Br  0.71500892  0.38921530  0.69099986    -0.04800
C877        C  0.30314977  0.70588186  0.69436755    -0.12200
C878        C  0.32960911  0.71943497  0.67206624     0.03200
C879        C  0.35143032  0.69883435  0.65138460    -0.12800
C880        C  0.34747559  0.66467278  0.65180529     0.18100
C881        C  0.32141592  0.65094162  0.67342026    -0.09800
C882        C  0.29970406  0.67124860  0.69426434    -0.02800
H883        H  0.37144835  0.70954994  0.63462836     0.04600
C884        C  0.37064758  0.64327319  0.62984230     0.20100
H885        H  0.28019756  0.65899597  0.70989869     0.09800
C886        C  0.40423201  0.63467399  0.64299921    -0.16200
C887        C  0.42476930  0.61074929  0.62545463     0.02800
C888        C  0.41101884  0.59418820  0.59457217    -0.11500
C889        C  0.37832455  0.60469550  0.58029497    -0.01500
C890        C  0.35841892  0.62918213  0.59741424    -0.06700
H891        H  0.41415716  0.64610870  0.66753281     0.05800
H892        H  0.36761641  0.59332649  0.55608043     0.09200
Br893      Br  0.31463928  0.60419797  0.67551717    -0.06400
Br894      Br  0.33749441  0.76592765  0.66775508    -0.03300
Br895      Br  0.47112326  0.60273953  0.64531509    -0.00500
Br896      Br  0.31432694  0.64227125  0.57595157    -0.04800
C897        C  0.39675978  0.39216065  0.39572306    -0.12200
C898        C  0.40937181  0.37138294  0.36792902     0.03200
C899        C  0.38527913  0.35439424  0.34551961    -0.12800
C900        C  0.34860472  0.35739992  0.35043014     0.18100
C901        C  0.33602325  0.37743738  0.37861863    -0.09800
C902        C  0.35997421  0.39450111  0.40089196    -0.02800
H903        H  0.39519406  0.33840950  0.32439702     0.04600
C904        C  0.32385398  0.33860964  0.32679113     0.20100
H905        H  0.34959416  0.41032967  0.42189776     0.09800
C906        C  0.30325643  0.31356636  0.34135822    -0.16200
C907        C  0.27852367  0.29611230  0.32029838     0.02800
C908        C  0.27491669  0.30287805  0.28357009    -0.11500
C909        C  0.29570978  0.32790461  0.26902778    -0.01500
C910        C  0.31978675  0.34586283  0.29028449    -0.06700
H911        H  0.30578687  0.30820240  0.36956796     0.05800
H912        H  0.29300310  0.33369988  0.24093983     0.09200
Br913      Br  0.28628684  0.38332697  0.38697986    -0.06400
Br914      Br  0.45890596  0.36343184  0.36049728    -0.03300
Br915      Br  0.24818475  0.26611222  0.34422948    -0.00500
Br916      Br  0.34483148  0.38126446  0.26865711    -0.04800
loop_ 
_geom_bond_atom_site_label_1 
_geom_bond_atom_site_label_2 
_geom_bond_distance 
_geom_bond_site_symmetry_2 
_ccdc_geom_bond_type 
N1            N2   1.323       .  A
N1            N7   1.317       .  A
N1          Mn30   2.215       .  S
N2            C9   1.355       .  A
N3            N5   1.315       .  A
N3            N4   1.318       .  A
N3          Mn19   2.193       .  S
N4           C10   1.351       .  A
N5            N6   1.321       .  A
N5          Mn30   2.206       .  S
N6           C10   1.354       .  A
N7            N8   1.320       .  A
N7          Mn19   2.206       .  S
N8            C9   1.354       .  A
C9          C897   1.486       .  S
C10         C828   1.475       .  S
N11          N17   1.314       .  A
N11          N12   1.320       .  A
N11         Mn41   2.195       .  S
N12          C20   1.353       .  A
N13          N14   1.319       .  A
N13          N15   1.316       .  A
N13         Mn19   2.205       .  S
N14          C21   1.353       .  A
N15          N16   1.321       .  A
N15         Mn41   2.204       .  S
N16          C21   1.354       .  A
N17          N18   1.320       .  A
N17         Mn19   2.203       .  S
N18          C20   1.356       .  A
Mn19        Cl43   2.543       .  S
C20         C888   1.489       .  S
C21         C777   1.482       .  S
N22          N23   1.322       .  A
N22          N28   1.315       .  A
N22         Mn30   2.209       .  S
N23          C31   1.356       .  A
N24          N26   1.316       .  A
N24          N25   1.316       .  A
N24         Mn42   2.194       .  S
N25          C32   1.349       .  A
N26          N27   1.321       .  A
N26         Mn30   2.207       .  S
N27          C32   1.356       .  A
N28          N29   1.317       .  A
N28         Mn42   2.186       .  S
N29          C31   1.349       .  A
Mn30        Cl43   2.552       .  S
C31         C837   1.478       .  S
C32         C797   1.482       .  S
N33          N34   1.318       .  A
N33          N39   1.314       .  A
N33         Mn41   2.199       .  S
N34          C44   1.353       .  A
N35          N36   1.324       .  A
N35          N37   1.314       .  A
N35         Mn42   2.211       .  S
N36          C45   1.357       .  A
N37          N38   1.318       .  A
N37         Mn41   2.200       .  S
N38          C45   1.352       .  A
N39          N40   1.321       .  A
N39         Mn42   2.198       .  S
N40          C44   1.355       .  A
Mn41        Cl43   2.546       .  S
Mn42        Cl43   2.543       .  S
C44         C857   1.488       .  S
C45         C757   1.488       .  S
N46          N47   1.321       .  A
N46          N52   1.314       .  A
N46         Mn75   2.205       .  S
N47          C54   1.354       .  A
N48          N50   1.315       .  A
N48          N49   1.319       .  A
N48         Mn64   2.194       .  S
N49          C55   1.350       .  A
N50          N51   1.321       .  A
N50         Mn75   2.207       .  S
N51          C55   1.355       .  A
N52          N53   1.319       .  A
N52         Mn64   2.198       .  S
N53          C54   1.355       .  A
C54         C737   1.489       .  S
C55         C688   1.480       .  S
N56          N62   1.315       .  A
N56          N57   1.318       .  A
N56         Mn86   2.189       .  S
N57          C65   1.351       .  A
N58          N59   1.323       .  A
N58          N60   1.314       .  A
N58         Mn64   2.205   1_554  S
N59          C66   1.355       .  A
N60          N61   1.317       .  A
N60         Mn86   2.187       .  S
N61          C66   1.349       .  A
N62          N63   1.321       .  A
N62         Mn64   2.202   1_554  S
N63          C65   1.354       .  A
Mn64        Cl88   2.550       .  S
C65         C637   1.473       .  S
C66         C717   1.476       .  S
N67          N68   1.320       .  A
N67          N73   1.317       .  A
N67         Mn75   2.206   1_455  S
N68          C76   1.352       .  A
N69          N71   1.316       .  A
N69          N70   1.320       .  A
N69         Mn87   2.206       .  S
N70          C77   1.354       .  A
N71          N72   1.319       .  A
N71         Mn75   2.195   1_455  S
N72          C77   1.351       .  A
N73          N74   1.324       .  A
N73         Mn87   2.223       .  S
N74          C76   1.357       .  A
Mn75        Cl88   2.543       .  S
C76         C668   1.490       .  S
C77         C708   1.475       .  S
N78          N79   1.316       .  A
N78          N84   1.315       .  A
N78         Mn86   2.178   1_455  S
N79          C89   1.348       .  A
N80          N81   1.321       .  A
N80          N82   1.316       .  A
N80         Mn87   2.208   1_554  S
N81          C90   1.354       .  A
N82          N83   1.318       .  A
N82         Mn86   2.188   1_455  S
N83          C90   1.350       .  A
N84          N85   1.324       .  A
N84         Mn87   2.224   1_554  S
N85          C89   1.358       .  A
Mn86        Cl88   2.536   1_554  S
Mn87        Cl88   2.551   1_455  S
C89         C597   1.477       .  S
C90         C617   1.475       .  S
C91          C92   1.529       .  S
C91          C97   1.539       .  S
C91          C95   1.542       .  S
C91         C588   1.537       .  S
C92          H99   1.086       .  S
C92          C93   1.364       .  D
C93          C94   1.550       .  S
C93         C748   1.488       .  S
C94          C98   1.548       .  S
C94          C96   1.544       .  S
C94         H100   1.109       .  S
C95         H101   1.082       .  S
C95          C96   1.362       .  D
C96         C868   1.488       .  S
C97         H102   1.086       .  S
C97          C98   1.370       .  D
C98         C568   1.497       .  S
N103        N104   1.322       .  A
N103        N109   1.317       .  A
N103       Mn132   2.206       .  S
N104        C111   1.353       .  A
N105        N107   1.316       .  A
N105        N106   1.321       .  A
N105       Mn121   2.208   1_566  S
N106        C112   1.353       .  A
N107        N108   1.323       .  A
N107       Mn132   2.219   1_565  S
N108        C112   1.357       .  A
N109        N110   1.319       .  A
N109       Mn121   2.202   1_556  S
N110        C111   1.350       .  A
C111        C577   1.470       .  S
C112        C488   1.490       .  S
N113        N119   1.316       .  A
N113        N114   1.322       .  A
N113       Mn143   2.218   1_565  S
N114        C122   1.356       .  A
N115        N116   1.319       .  A
N115        N117   1.315       .  A
N115       Mn121   2.200       .  S
N116        C123   1.352       .  A
N117        N118   1.322       .  A
N117       Mn143   2.207       .  S
N118        C123   1.356       .  A
N119        N120   1.322       .  A
N119       Mn121   2.204   1_565  S
N120        C122   1.354       .  A
Mn121      Cl145   2.543       .  S
C122        C528   1.488       .  S
C123        C428   1.484       .  S
N124        N125   1.320       .  A
N124        N130   1.316       .  A
N124       Mn132   2.207   1_565  S
N125        C133   1.354       .  A
N126        N128   1.317       .  A
N126        N127   1.322       .  A
N126       Mn144   2.211   1_556  S
N127        C134   1.354       .  A
N128        N129   1.323       .  A
N128       Mn132   2.222       .  S
N129        C134   1.356       .  A
N130        N131   1.322       .  A
N130       Mn144   2.211   1_566  S
N131        C133   1.355       .  A
Mn132      Cl145   2.560   1_556  S
C133        C537   1.485       .  S
C134        C497   1.490       .  S
N135        N136   1.322       .  A
N135        N141   1.317       .  A
N135       Mn143   2.213       .  S
N136        C146   1.353       .  A
N137        N138   1.321       .  A
N137        N139   1.315       .  A
N137       Mn144   2.205   1_565  S
N138        C147   1.353       .  A
N139        N140   1.320       .  A
N139       Mn143   2.204   1_565  S
N140        C147   1.355       .  A
N141        N142   1.323       .  A
N141       Mn144   2.216       .  S
N142        C146   1.355       .  A
Mn143      Cl145   2.556       .  S
Mn144      Cl145   2.549       .  S
C146        C437   1.484       .  S
C147        C457   1.490       .  S
C148        C149   1.531       .  S
C148        C154   1.551       .  S
C148        C152   1.535       .  S
C148        C877   1.543       .  S
C149        H156   1.086       .  S
C149        C150   1.364       .  D
C150        C151   1.549       .  S
C150        C397   1.491       .  S
C151        C155   1.542       .  S
C151        C153   1.543       .  S
C151        H157   1.110       .  S
C152        H158   1.086       .  S
C152        C153   1.365       .  D
C153        C548   1.484       .  S
C154        H159   1.079       .  S
C154        C155   1.370       .  D
C155        C657   1.496       .  S
N160        N161   1.323       .  A
N160        N166   1.316       .  A
N160       Mn189   2.226   1_655  S
N161        C168   1.356       .  A
N162        N164   1.316       .  A
N162        N163   1.318       .  A
N162       Mn178   2.191   1_565  S
N163        C169   1.350       .  A
N164        N165   1.321       .  A
N164       Mn189   2.209   1_665  S
N165        C169   1.354       .  A
N166        N167   1.323       .  A
N166       Mn178   2.209       .  S
N167        C168   1.355       .  A
C168        C557   1.493       .  S
C169        C328   1.470       .  S
N170        N176   1.315       .  A
N170        N171   1.321       .  A
N170       Mn200   2.200   1_665  S
N171        C179   1.354       .  A
N172        N173   1.319       .  A
N172        N174   1.315       .  A
N172       Mn178   2.197       .  S
N173        C180   1.354       .  A
N174        N175   1.320       .  A
N174       Mn200   2.201   1_655  S
N175        C180   1.353       .  A
N176        N177   1.320       .  A
N176       Mn178   2.206   1_565  S
N177        C179   1.355       .  A
Mn178      Cl202   2.548   1_655  S
C179        C357   1.489       .  S
C180        C377   1.486       .  S
N181        N182   1.322       .  A
N181        N187   1.315       .  A
N181       Mn189   2.219   1_565  S
N182        C190   1.356       .  A
N183        N185   1.316       .  A
N183        N184   1.321       .  A
N183       Mn201   2.210       .  S
N184        C191   1.355       .  A
N185        N186   1.321       .  A
N185       Mn189   2.210       .  S
N186        C191   1.354       .  A
N187        N188   1.321       .  A
N187       Mn201   2.201   1_565  S
N188        C190   1.355       .  A
Mn189      Cl202   2.549       .  S
C190        C408   1.495       .  S
C191        C277   1.491       .  S
N192        N193   1.317       .  A
N192        N198   1.314       .  A
N192       Mn200   2.195       .  S
N193        C203   1.354       .  A
N194        N195   1.323       .  A
N194        N196   1.316       .  A
N194       Mn201   2.216   1_565  S
N195        C204   1.356       .  A
N196        N197   1.320       .  A
N196       Mn200   2.202   1_565  S
N197        C204   1.352       .  A
N198        N199   1.320       .  A
N198       Mn201   2.195       .  S
N199        C203   1.353       .  A
Mn200      Cl202   2.547       .  S
Mn201      Cl202   2.550       .  S
C203        C297   1.483       .  S
C204        C348   1.484       .  S
C205        C206   1.543       .  S
C205        C211   1.535       .  S
C205        C209   1.534       .  S
C205        C848   1.534       .  S
C206        H213   1.079       .  S
C206        C207   1.364       .  D
C207        C208   1.543       .  S
C207        C368   1.483       .  S
C208        C212   1.540       .  S
C208        C210   1.544       .  S
C208        H214   1.111       .  S
C209        H215   1.086       .  S
C209        C210   1.365       .  D
C210        C517   1.486       .  S
C211        H216   1.087       .  S
C211        C212   1.362       .  D
C212        C648   1.480       .  S
C217        C218   1.534       .  S
C217        C223   1.545       .  S
C217        C221   1.532       .  S
C217        C608   1.532       .  S
C218        H225   1.087       .  S
C218        C219   1.362       .  D
C219        C220   1.543       .  S
C219        C908   1.485       .  S
C220        C224   1.544       .  S
C220        C222   1.545       .  S
C220        H226   1.110       .  S
C221        H227   1.087       .  S
C221        C222   1.363       .  D
C222        C448   1.490       .  S
C223        H228   1.082       .  S
C223        C224   1.368       .  D
C224        C308   1.483       .  S
C229        C230   1.544       .  S
C229        C235   1.534       .  S
C229        C233   1.537       .  S
C229        C728   1.538       .  S
C230        H237   1.080       .  S
C230        C231   1.364       .  D
C231        C232   1.538       .  S
C231        C388   1.480       .  S
C232        C236   1.542       .  S
C232        C234   1.537       .  S
C232        H238   1.109       .  S
C233        H239   1.086       .  S
C233        C234   1.365       .  D
C234        C417   1.480       .  S
C235        H240   1.086       .  S
C235        C236   1.367       .  D
C236        C808   1.488       .  S
C241        C242   1.536       .  S
C241        C247   1.534       .  S
C241        C245   1.547       .  S
C241        C817   1.534       .  S
C242        H249   1.085       .  S
C242        C243   1.367       .  D
C243        C244   1.546       .  S
C243        C468   1.491       .  S
C244        C248   1.536       .  S
C244        C246   1.536       .  S
C244        H250   1.111       .  S
C245        H251   1.081       .  S
C245        C246   1.366       .  D
C246        C337   1.479       .  S
C247        H252   1.086       .  S
C247        C248   1.359       .  D
C248        C628   1.471       .  S
C253        C254   1.542       .  S
C253        C259   1.534       .  S
C253        C257   1.538       .  S
C253        C697   1.540       .  S
C254        H261   1.080       .  S
C254        C255   1.365       .  D
C255        C256   1.545       .  S
C255        C288   1.490       .  S
C256        C260   1.542       .  S
C256        C258   1.546       .  S
C256        H262   1.109       .  S
C257        H263   1.086       .  S
C257        C258   1.367       .  D
C258        C508   1.491       .  S
C259        H264   1.087       .  S
C259        C260   1.365       .  D
C260        C788   1.488       .  S
C265        C266   1.532       .  S
C265        C271   1.536       .  S
C265        C269   1.543       .  S
C265        C317   1.536       .  S
C266        H273   1.087       .  S
C266        C267   1.360       .  D
C267        C268   1.545       .  S
C267        C677   1.484       .  S
C268        C272   1.548       .  S
C268        C270   1.551       .  S
C268        H274   1.110       .  S
C269        H275   1.081       .  S
C269        C270   1.366       .  D
C270        C768   1.492       .  S
C271        H276   1.086       .  S
C271        C272   1.367       .  D
C272        C477   1.493       .  S
C277        C278   1.418       .  A
C277        C282   1.410       .  A
C278        C279   1.400       .  A
C278       Br294   1.921       .  S
C279        C280   1.400       .  A
C279        H283   1.084       .  S
C280        C284   1.482       .  S
C280        C281   1.406       .  A
C281        C282   1.402       .  A
C281       Br293   1.918       .  S
C282        H285   1.083       .  S
C284        C286   1.405       .  A
C284        C290   1.405       .  A
C286        C287   1.404       .  A
C286        H291   1.083       .  S
C287        C288   1.410       .  A
C287       Br295   1.917       .  S
C288        C289   1.408       .  A
C289        C290   1.397       .  A
C289        H292   1.084       .  S
C290       Br296   1.919       .  S
C297        C298   1.419       .  A
C297        C302   1.406       .  A
C298        C299   1.403       .  A
C298       Br314   1.922       .  S
C299        C300   1.401       .  A
C299        H303   1.083       .  S
C300        C304   1.472       .  S
C300        C301   1.403       .  A
C301        C302   1.392       .  A
C301       Br313   1.920       .  S
C302        H305   1.083       .  S
C304        C306   1.400       .  A
C304        C310   1.405       .  A
C306        C307   1.398       .  A
C306        H311   1.084       .  S
C307        C308   1.409       .  A
C307       Br315   1.914       .  S
C308        C309   1.407       .  A
C309        C310   1.399       .  A
C309        H312   1.084       .  S
C310       Br316   1.919       .  S
C317        C318   1.424       .  A
C317        C322   1.414       .  A
C318        C319   1.397       .  A
C318       Br334   1.926       .  S
C319        C320   1.396       .  A
C319        H323   1.084       .  S
C320        C324   1.473       .  S
C320        C321   1.402       .  A
C321        C322   1.398       .  A
C321       Br333   1.920       .  S
C322        H325   1.075       .  S
C324        C326   1.403       .  A
C324        C330   1.406       .  A
C326        C327   1.400       .  A
C326        H331   1.083       .  S
C327        C328   1.408       .  A
C327       Br335   1.917       .  S
C328        C329   1.403       .  A
C329        C330   1.395       .  A
C329        H332   1.084       .  S
C330       Br336   1.919       .  S
C337        C338   1.407       .  A
C337        C342   1.402       .  A
C338        C339   1.398       .  A
C338       Br354   1.919       .  S
C339        C340   1.403       .  A
C339        H343   1.083       .  S
C340        C344   1.481       .  S
C340        C341   1.409       .  A
C341        C342   1.401       .  A
C341       Br353   1.918       .  S
C342        H345   1.081       .  S
C344        C346   1.401       .  A
C344        C350   1.408       .  A
C346        C347   1.401       .  A
C346        H351   1.084       .  S
C347        C348   1.417       .  A
C347       Br355   1.921       .  S
C348        C349   1.404       .  A
C349        C350   1.400       .  A
C349        H352   1.083       .  S
C350       Br356   1.919       .  S
C357        C358   1.420       .  A
C357        C362   1.408       .  A
C358        C359   1.402       .  A
C358       Br374   1.921       .  S
C359        C360   1.400       .  A
C359        H363   1.084       .  S
C360        C364   1.477       .  S
C360        C361   1.405       .  A
C361        C362   1.396       .  A
C361       Br373   1.920       .  S
C362        H365   1.083       .  S
C364        C366   1.399       .  A
C364        C370   1.408       .  A
C366        C367   1.396       .  A
C366        H371   1.084       .  S
C367        C368   1.415       .  A
C367       Br375   1.923       .  S
C368        C369   1.403       .  A
C369        C370   1.402       .  A
C369        H372   1.084       .  S
C370       Br376   1.917       .  S
C377        C378   1.419       .  A
C377        C382   1.409       .  A
C378        C379   1.399       .  A
C378       Br394   1.922       .  S
C379        C380   1.399       .  A
C379        H383   1.084       .  S
C380        C384   1.472       .  S
C380        C381   1.402       .  A
C381        C382   1.396       .  A
C381       Br393   1.918       .  S
C382        H385   1.083       .  S
C384        C386   1.401       .  A
C384        C390   1.404       .  A
C386        C387   1.400       .  A
C386        H391   1.084       .  S
C387        C388   1.410       .  A
C387       Br395   1.912       .  S
C388        C389   1.404       .  A
C389        C390   1.395       .  A
C389        H392   1.084       .  S
C390       Br396   1.918       .  S
C397        C398   1.417       .  A
C397        C402   1.404       .  A
C398        C399   1.400       .  A
C398       Br414   1.922       .  S
C399        C400   1.399       .  A
C399        H403   1.084       .  S
C400        C404   1.483       .  S
C400        C401   1.409       .  A
C401        C402   1.405       .  A
C401       Br413   1.917       .  S
C402        H405   1.082       .  S
C404        C406   1.400       .  A
C404        C410   1.405       .  A
C406        C407   1.403       .  A
C406        H411   1.084       .  S
C407        C408   1.419       .  A
C407       Br415   1.920       .  S
C408        C409   1.410       .  A
C409        C410   1.401       .  A
C409        H412   1.083       .  S
C410       Br416   1.918       .  S
C417        C418   1.409       .  A
C417        C422   1.401       .  A
C418        C419   1.401       .  A
C418       Br434   1.916       .  S
C419        C420   1.405       .  A
C419        H423   1.083       .  S
C420        C424   1.486       .  S
C420        C421   1.412       .  A
C421        C422   1.395       .  A
C421       Br433   1.922       .  S
C422        H425   1.084       .  S
C424        C426   1.401       .  A
C424        C430   1.411       .  A
C426        C427   1.394       .  A
C426        H431   1.084       .  S
C427        C428   1.413       .  A
C427       Br435   1.914       .  S
C428        C429   1.407       .  A
C429        C430   1.402       .  A
C429        H432   1.083       .  S
C430       Br436   1.919       .  S
C437        C438   1.414       .  A
C437        C442   1.404       .  A
C438        C439   1.402       .  A
C438       Br454   1.919       .  S
C439        C440   1.402       .  A
C439        H443   1.084       .  S
C440        C444   1.484       .  S
C440        C441   1.409       .  A
C441        C442   1.402       .  A
C441       Br453   1.919       .  S
C442        H445   1.083       .  S
C444        C446   1.403       .  A
C444        C450   1.408       .  A
C446        C447   1.404       .  A
C446        H451   1.083       .  S
C447        C448   1.412       .  A
C447       Br455   1.915       .  S
C448        C449   1.406       .  A
C449        C450   1.398       .  A
C449        H452   1.084       .  S
C450       Br456   1.919       .  S
C457        C458   1.419       .  A
C457        C462   1.408       .  A
C458        C459   1.402       .  A
C458       Br474   1.922       .  S
C459        C460   1.401       .  A
C459        H463   1.084       .  S
C460        C464   1.481       .  S
C460        C461   1.406       .  A
C461        C462   1.397       .  A
C461       Br473   1.919       .  S
C462        H465   1.083       .  S
C464        C466   1.400       .  A
C464        C470   1.407       .  A
C466        C467   1.399       .  A
C466        H471   1.084       .  S
C467        C468   1.417       .  A
C467       Br475   1.918       .  S
C468        C469   1.406       .  A
C469        C470   1.400       .  A
C469        H472   1.083       .  S
C470       Br476   1.918       .  S
C477        C478   1.411       .  A
C477        C482   1.408       .  A
C478        C479   1.404       .  A
C478       Br494   1.917       .  S
C479        C480   1.405       .  A
C479        H483   1.083       .  S
C480        C484   1.487       .  S
C480        C481   1.407       .  A
C481        C482   1.400       .  A
C481       Br493   1.919       .  S
C482        H485   1.084       .  S
C484        C486   1.404       .  A
C484        C490   1.408       .  A
C486        C487   1.406       .  A
C486        H491   1.083       .  S
C487        C488   1.417       .  A
C487       Br495   1.921       .  S
C488        C489   1.406       .  A
C489        C490   1.400       .  A
C489        H492   1.083       .  S
C490       Br496   1.919       .  S
C497        C498   1.414       .  A
C497        C502   1.406       .  A
C498        C499   1.403       .  A
C498       Br514   1.920       .  S
C499        C500   1.405       .  A
C499        H503   1.083       .  S
C500        C504   1.493       .  S
C500        C501   1.412       .  A
C501        C502   1.403       .  A
C501       Br513   1.920       .  S
C502        H505   1.083       .  S
C504        C506   1.405       .  A
C504        C510   1.412       .  A
C506        C507   1.403       .  A
C506        H511   1.083       .  S
C507        C508   1.412       .  A
C507       Br515   1.915       .  S
C508        C509   1.405       .  A
C509        C510   1.401       .  A
C509        H512   1.084       .  S
C510       Br516   1.919       .  S
C517        C518   1.410       .  A
C517        C522   1.403       .  A
C518        C519   1.403       .  A
C518       Br534   1.914       .  S
C519        C520   1.405       .  A
C519        H523   1.083       .  S
C520        C524   1.489       .  S
C520        C521   1.410       .  A
C521        C522   1.399       .  A
C521       Br533   1.919       .  S
C522        H525   1.084       .  S
C524        C526   1.404       .  A
C524        C530   1.409       .  A
C526        C527   1.402       .  A
C526        H531   1.083       .  S
C527        C528   1.412       .  A
C527       Br535   1.920       .  S
C528        C529   1.407       .  A
C529        C530   1.403       .  A
C529        H532   1.083       .  S
C530       Br536   1.920       .  S
C537        C538   1.414       .  A
C537        C542   1.407       .  A
C538        C539   1.401       .  A
C538       Br554   1.921       .  S
C539        C540   1.402       .  A
C539        H543   1.084       .  S
C540        C544   1.484       .  S
C540        C541   1.408       .  A
C541        C542   1.402       .  A
C541       Br553   1.918       .  S
C542        H545   1.083       .  S
C544        C546   1.402       .  A
C544        C550   1.411       .  A
C546        C547   1.401       .  A
C546        H551   1.084       .  S
C547        C548   1.412       .  A
C547       Br555   1.919       .  S
C548        C549   1.402       .  A
C549        C550   1.402       .  A
C549        H552   1.083       .  S
C550       Br556   1.918       .  S
C557        C558   1.414       .  A
C557        C562   1.409       .  A
C558        C559   1.403       .  A
C558       Br574   1.919       .  S
C559        C560   1.403       .  A
C559        H563   1.083       .  S
C560        C564   1.489       .  S
C560        C561   1.409       .  A
C561        C562   1.405       .  A
C561       Br573   1.919       .  S
C562        H565   1.083       .  S
C564        C566   1.404       .  A
C564        C570   1.407       .  A
C566        C567   1.406       .  A
C566        H571   1.083       .  S
C567        C568   1.416       .  A
C567       Br575   1.916       .  S
C568        C569   1.407       .  A
C569        C570   1.399       .  A
C569        H572   1.083       .  S
C570       Br576   1.919       .  S
C577        C578   1.406       .  A
C577        C582   1.402       .  A
C578        C579   1.397       .  A
C578       Br594   1.914       .  S
C579        C580   1.402       .  A
C579        H583   1.084       .  S
C580        C584   1.476       .  S
C580        C581   1.409       .  A
C581        C582   1.400       .  A
C581       Br593   1.919       .  S
C582        H585   1.083       .  S
C584        C586   1.400       .  A
C584        C590   1.401       .  A
C586        C587   1.402       .  A
C586        H591   1.084       .  S
C587        C588   1.422       .  A
C587       Br595   1.923       .  S
C588        C589   1.413       .  A
C589        C590   1.394       .  A
C589        H592   1.077       .  S
C590       Br596   1.920       .  S
C597        C598   1.409       .  A
C597        C602   1.406       .  A
C598        C599   1.400       .  A
C598       Br614   1.917       .  S
C599        C600   1.402       .  A
C599        H603   1.083       .  S
C600        C604   1.475       .  S
C600        C601   1.407       .  A
C601        C602   1.397       .  A
C601       Br613   1.921       .  S
C602        H605   1.084       .  S
C604        C606   1.395       .  A
C604        C610   1.405       .  A
C606        C607   1.395       .  A
C606        H611   1.084       .  S
C607        C608   1.424       .  A
C607       Br615   1.927       .  S
C608        C609   1.413       .  A
C609        C610   1.400       .  A
C609        H612   1.076       .  S
C610       Br616   1.919       .  S
C617        C618   1.413       .  A
C617        C622   1.401       .  A
C618        C619   1.397       .  A
C618       Br634   1.922       .  S
C619        C620   1.403       .  A
C619        H623   1.083       .  S
C620        C624   1.485       .  S
C620        C621   1.412       .  A
C621        C622   1.398       .  A
C621       Br633   1.921       .  S
C622        H625   1.084       .  S
C624        C626   1.404       .  A
C624        C630   1.414       .  A
C626        C627   1.395       .  A
C626        H631   1.083       .  S
C627        C628   1.404       .  A
C627       Br635   1.914       .  S
C628        C629   1.400       .  A
C629        C630   1.399       .  A
C629        H632   1.082       .  S
C630       Br636   1.921       .  S
C637        C638   1.413       .  A
C637        C642   1.405       .  A
C638        C639   1.396       .  A
C638       Br654   1.922       .  S
C639        C640   1.400       .  A
C639        H643   1.084       .  S
C640        C644   1.473       .  S
C640        C641   1.405       .  A
C641        C642   1.399       .  A
C641       Br653   1.918       .  S
C642        H645   1.083       .  S
C644        C646   1.400       .  A
C644        C650   1.406       .  A
C646        C647   1.398       .  A
C646        H651   1.084       .  S
C647        C648   1.409       .  A
C647       Br655   1.913       .  S
C648        C649   1.405       .  A
C649        C650   1.396       .  A
C649        H652   1.084       .  S
C650       Br656   1.919       .  S
C657        C658   1.414       .  A
C657        C662   1.408       .  A
C658        C659   1.406       .  A
C658       Br674   1.917       .  S
C659        C660   1.404       .  A
C659        H663   1.083       .  S
C660        C664   1.486       .  S
C660        C661   1.407       .  A
C661        C662   1.398       .  A
C661       Br673   1.920       .  S
C662        H665   1.083       .  S
C664        C666   1.400       .  A
C664        C670   1.408       .  A
C666        C667   1.400       .  A
C666        H671   1.084       .  S
C667        C668   1.418       .  A
C667       Br675   1.921       .  S
C668        C669   1.407       .  A
C669        C670   1.404       .  A
C669        H672   1.083       .  S
C670       Br676   1.918       .  S
C677        C678   1.411       .  A
C677        C682   1.404       .  A
C678        C679   1.400       .  A
C678       Br694   1.911       .  S
C679        C680   1.401       .  A
C679        H683   1.084       .  S
C680        C684   1.478       .  S
C680        C681   1.408       .  A
C681        C682   1.396       .  A
C681       Br693   1.920       .  S
C682        H685   1.084       .  S
C684        C686   1.400       .  A
C684        C690   1.407       .  A
C686        C687   1.399       .  A
C686        H691   1.084       .  S
C687        C688   1.417       .  A
C687       Br695   1.921       .  S
C688        C689   1.404       .  A
C689        C690   1.398       .  A
C689        H692   1.083       .  S
C690       Br696   1.919       .  S
C697        C698   1.423       .  A
C697        C702   1.416       .  A
C698        C699   1.400       .  A
C698       Br714   1.925       .  S
C699        C700   1.399       .  A
C699        H703   1.084       .  S
C700        C704   1.478       .  S
C700        C701   1.401       .  A
C701        C702   1.397       .  A
C701       Br713   1.921       .  S
C702        H705   1.073       .  S
C704        C706   1.402       .  A
C704        C710   1.407       .  A
C706        C707   1.399       .  A
C706        H711   1.084       .  S
C707        C708   1.413       .  A
C707       Br715   1.921       .  S
C708        C709   1.402       .  A
C709        C710   1.397       .  A
C709        H712   1.082       .  S
C710       Br716   1.918       .  S
C717        C718   1.413       .  A
C717        C722   1.404       .  A
C718        C719   1.396       .  A
C718       Br734   1.922       .  S
C719        C720   1.400       .  A
C719        H723   1.084       .  S
C720        C724   1.478       .  S
C720        C721   1.409       .  A
C721        C722   1.401       .  A
C721       Br733   1.918       .  S
C722        H725   1.083       .  S
C724        C726   1.398       .  A
C724        C730   1.403       .  A
C726        C727   1.399       .  A
C726        H731   1.084       .  S
C727        C728   1.423       .  A
C727       Br735   1.924       .  S
C728        C729   1.415       .  A
C729        C730   1.397       .  A
C729        H732   1.074       .  S
C730       Br736   1.921       .  S
C737        C738   1.419       .  A
C737        C742   1.409       .  A
C738        C739   1.402       .  A
C738       Br754   1.922       .  S
C739        C740   1.400       .  A
C739        H743   1.084       .  S
C740        C744   1.475       .  S
C740        C741   1.403       .  A
C741        C742   1.397       .  A
C741       Br753   1.919       .  S
C742        H745   1.083       .  S
C744        C746   1.402       .  A
C744        C750   1.404       .  A
C746        C747   1.402       .  A
C746        H751   1.084       .  S
C747        C748   1.414       .  A
C747       Br755   1.918       .  S
C748        C749   1.399       .  A
C749        C750   1.394       .  A
C749        H752   1.075       .  S
C750       Br756   1.919       .  S
C757        C758   1.416       .  A
C757        C762   1.407       .  A
C758        C759   1.399       .  A
C758       Br774   1.922       .  S
C759        C760   1.401       .  A
C759        H763   1.084       .  S
C760        C764   1.488       .  S
C760        C761   1.412       .  A
C761        C762   1.405       .  A
C761       Br773   1.920       .  S
C762        H765   1.083       .  S
C764        C766   1.403       .  A
C764        C770   1.409       .  A
C766        C767   1.400       .  A
C766        H771   1.084       .  S
C767        C768   1.410       .  A
C767       Br775   1.911       .  S
C768        C769   1.408       .  A
C769        C770   1.403       .  A
C769        H772   1.084       .  S
C770       Br776   1.919       .  S
C777        C778   1.415       .  A
C777        C782   1.408       .  A
C778        C779   1.395       .  A
C778       Br794   1.921       .  S
C779        C780   1.398       .  A
C779        H783   1.084       .  S
C780        C784   1.477       .  S
C780        C781   1.407       .  A
C781        C782   1.403       .  A
C781       Br793   1.918       .  S
C782        H785   1.083       .  S
C784        C786   1.402       .  A
C784        C790   1.405       .  A
C786        C787   1.401       .  A
C786        H791   1.084       .  S
C787        C788   1.412       .  A
C787       Br795   1.917       .  S
C788        C789   1.407       .  A
C789        C790   1.396       .  A
C789        H792   1.083       .  S
C790       Br796   1.919       .  S
C797        C798   1.419       .  A
C797        C802   1.407       .  A
C798        C799   1.396       .  A
C798       Br814   1.923       .  S
C799        C800   1.398       .  A
C799        H803   1.084       .  S
C800        C804   1.476       .  S
C800        C801   1.407       .  A
C801        C802   1.398       .  A
C801       Br813   1.920       .  S
C802        H805   1.083       .  S
C804        C806   1.401       .  A
C804        C810   1.406       .  A
C806        C807   1.399       .  A
C806        H811   1.084       .  S
C807        C808   1.413       .  A
C807       Br815   1.917       .  S
C808        C809   1.407       .  A
C809        C810   1.395       .  A
C809        H812   1.083       .  S
C810       Br816   1.921       .  S
C817        C818   1.424       .  A
C817        C822   1.414       .  A
C818        C819   1.395       .  A
C818       Br834   1.923       .  S
C819        C820   1.394       .  A
C819        H823   1.084       .  S
C820        C824   1.472       .  S
C820        C821   1.402       .  A
C821        C822   1.398       .  A
C821       Br833   1.919       .  S
C822        H825   1.076       .  S
C824        C826   1.401       .  A
C824        C830   1.405       .  A
C826        C827   1.398       .  A
C826        H831   1.084       .  S
C827        C828   1.411       .  A
C827       Br835   1.918       .  S
C828        C829   1.405       .  A
C829        C830   1.397       .  A
C829        H832   1.083       .  S
C830       Br836   1.919       .  S
C837        C838   1.415       .  A
C837        C842   1.404       .  A
C838        C839   1.396       .  A
C838       Br854   1.922       .  S
C839        C840   1.401       .  A
C839        H843   1.084       .  S
C840        C844   1.478       .  S
C840        C841   1.408       .  A
C841        C842   1.398       .  A
C841       Br853   1.919       .  S
C842        H845   1.082       .  S
C844        C846   1.398       .  A
C844        C850   1.404       .  A
C846        C847   1.396       .  A
C846        H851   1.084       .  S
C847        C848   1.422       .  A
C847       Br855   1.925       .  S
C848        C849   1.414       .  A
C849        C850   1.396       .  A
C849        H852   1.074       .  S
C850       Br856   1.921       .  S
C857        C858   1.419       .  A
C857        C862   1.410       .  A
C858        C859   1.397       .  A
C858       Br874   1.922       .  S
C859        C860   1.398       .  A
C859        H863   1.084       .  S
C860        C864   1.474       .  S
C860        C861   1.403       .  A
C861        C862   1.400       .  A
C861       Br873   1.919       .  S
C862        H865   1.083       .  S
C864        C866   1.399       .  A
C864        C870   1.405       .  A
C866        C867   1.397       .  A
C866        H871   1.084       .  S
C867        C868   1.415       .  A
C867       Br875   1.921       .  S
C868        C869   1.401       .  A
C869        C870   1.396       .  A
C869        H872   1.076       .  S
C870       Br876   1.918       .  S
C877        C878   1.425       .  A
C877        C882   1.414       .  A
C878        C879   1.403       .  A
C878       Br894   1.924       .  S
C879        C880   1.398       .  A
C879        H883   1.083       .  S
C880        C884   1.479       .  S
C880        C881   1.402       .  A
C881        C882   1.397       .  A
C881       Br893   1.921       .  S
C882        H885   1.074       .  S
C884        C886   1.400       .  A
C884        C890   1.404       .  A
C886        C887   1.402       .  A
C886        H891   1.084       .  S
C887        C888   1.419       .  A
C887       Br895   1.922       .  S
C888        C889   1.408       .  A
C889        C890   1.397       .  A
C889        H892   1.083       .  S
C890       Br896   1.918       .  S
C897        C898   1.414       .  A
C897        C902   1.407       .  A
C898        C899   1.403       .  A
C898       Br914   1.919       .  S
C899        C900   1.403       .  A
C899        H903   1.084       .  S
C900        C904   1.481       .  S
C900        C901   1.407       .  A
C901        C902   1.398       .  A
C901       Br913   1.921       .  S
C902        H905   1.083       .  S
C904        C906   1.403       .  A
C904        C910   1.408       .  A
C906        C907   1.399       .  A
C906        H911   1.084       .  S
C907        C908   1.410       .  A
C907       Br915   1.914       .  S
C908        C909   1.406       .  A
C909        C910   1.398       .  A
C909        H912   1.084       .  S
C910       Br916   1.918       .  S
