geometry optimzed in LAMMPS
_audit_creation_date              2020-11-30 
_audit_creation_method            'lammps2cif' 
_symmetry_space_group_name_H-M    'P1' 
_symmetry_Int_Tables_number       1 
_symmetry_cell_setting            triclinic 
loop_ 
_symmetry_equiv_pos_as_xyz 
  x,y,z 
_cell_length_a                    35.8359833720064 
_cell_length_b                    36.504022391676635 
_cell_length_c                    39.56020156649056 
_cell_angle_alpha                 89.76738892732398 
_cell_angle_beta                  88.79961885518931 
_cell_angle_gamma                 88.0270360258502 
loop_ 
_atom_site_label 
_atom_site_type_symbol 
_atom_site_fract_x 
_atom_site_fract_y 
_atom_site_fract_z 
_atom_site_charge 
O1          O  0.45032597  0.48844701  0.45186620    -0.80760
O2          O  0.05526443  0.00516706  0.44654308    -0.80790
O3          O  0.46744941  0.08697589  0.48383788    -0.80790
O4          O  0.01080806  0.43525281  0.46213056    -0.80740
O5          O  0.00672543  0.06118578  0.44725439    -0.80860
O6          O  0.45433779  0.41957331  0.47796167    -0.80780
O7          O  0.07794558  0.46554171  0.48119137    -0.80760
O8          O  0.41952152  0.03043742  0.48195776    -0.80800
C9          C  0.42266849  0.51067751  0.45541122     1.08930
C10         C  0.08134838  0.98310452  0.45392803     1.08810
C11         C  0.48494941  0.08728227  0.45560711     1.08950
C12         C  0.98285810  0.41395902  0.45919633     1.08830
O13         O  0.48802996  0.43547911  0.53598033    -0.80760
O14         O  0.03148727  0.08488135  0.51307348    -0.80840
O15         O  0.44106620  0.01042505  0.55141016    -0.80780
O16         O  0.05047265  0.48411130  0.54595599    -0.80760
O17         O  0.07974326  0.02528395  0.51506320    -0.80810
O18         O  0.42110803  0.47065788  0.51658034    -0.80770
O19         O  0.04411845  0.41570260  0.51946558    -0.80730
O20         O  0.49113138  0.06321266  0.55009125    -0.80800
Co21       Co  0.47111482  0.46472149  0.49270362     1.51530
Co22       Co  0.04094041  0.04198058  0.48104182     1.51690
Co23       Co  0.45735173  0.04527684  0.51635396     1.51570
Co24       Co  0.02815479  0.46254318  0.50547780     1.51470
O25         O  0.49951132  0.51056814  0.49960486    -1.42700
C26         C  0.01596583  0.41219421  0.53876939     1.08850
C27         C  0.51385795  0.08706480  0.54131511     1.08940
C28         C  0.41625263  0.48890725  0.54335453     1.08880
C29         C  0.07759164  0.00525124  0.54157733     1.08860
C30         C  0.48533087  0.21837014  0.37515019     0.02500
C31         C  0.48671947  0.25127992  0.39282510    -0.13650
C32         C  0.48466500  0.28486264  0.37561301     0.00000
C33         C  0.48332782  0.28520544  0.34025156    -0.12170
C34         C  0.48333711  0.25216537  0.32216068     0.02500
C35         C  0.48472582  0.21869824  0.33984285    -0.11590
H36         H  0.48814057  0.25073199  0.42018680     0.08090
H37         H  0.48131470  0.31114953  0.32689169     0.05620
H38         H  0.48512422  0.19297407  0.32626510     0.05470
C39         C  0.28829318  0.50278691  0.37663374     0.02500
C40         C  0.28726256  0.50308678  0.34113565    -0.13650
C41         C  0.25379460  0.49718516  0.32425919     0.00000
C42         C  0.22095189  0.49207748  0.34351349    -0.12170
C43         C  0.22149428  0.49210412  0.37899299     0.02500
C44         C  0.25529678  0.49689283  0.39543583    -0.11590
H45         H  0.31254944  0.50823211  0.32666402     0.08090
H46         H  0.19481107  0.48815975  0.33093520     0.05620
H47         H  0.25576530  0.99682195  0.42283204     0.05470
C48         C  0.27748723  0.49359407  0.62079600     0.02500
C49         C  0.24316654  0.49833613  0.60465292    -0.13650
C50         C  0.20973109  0.50118991  0.62362715     0.00000
C51         C  0.21071353  0.49895788  0.65901259    -0.12170
C52         C  0.24500191  0.49525670  0.67576150     0.02500
C53         C  0.27836317  0.49308151  0.65627108    -0.11590
H54         H  0.24244218  0.99927954  0.57726692     0.08090
H55         H  0.18469412  0.50024434  0.67346467     0.05620
H56         H  0.30507767  0.49137746  0.66858264     0.05470
C57         C  0.51540735  0.21689711  0.62284553     0.02500
C58         C  0.51539270  0.25031733  0.60560592    -0.13650
C59         C  0.51600198  0.28333790  0.62334669     0.00000
C60         C  0.51487256  0.28279904  0.65871581    -0.12170
C61         C  0.51345233  0.24938736  0.67643169     0.02500
C62         C  0.51344916  0.21637227  0.65823176    -0.11590
H63         H  0.51564955  0.25054854  0.57817706     0.08090
H64         H  0.51564571  0.30837913  0.67245370     0.05620
H65         H  0.51152993  0.19041853  0.67140961     0.05470
C66         C  0.25980039  0.46991428  0.12341304     0.02500
C67         C  0.25621379  0.46987942  0.15878340    -0.13650
C68         C  0.25187907  0.50273374  0.17702732     0.00000
C69         C  0.25041948  0.03624470  0.15919991    -0.12170
C70         C  0.25279475  0.03708944  0.12355372     0.02500
C71         C  0.25819798  0.50363830  0.10604347    -0.11590
H72         H  0.25732256  0.44399547  0.17229552     0.08090
H73         H  0.24746893  0.06166801  0.17313108     0.05620
H74         H  0.26120551  0.50377391  0.07875986     0.05470
O75         O  0.29617094  0.32799506  0.02641848    -0.80760
O76         O  0.23795338  0.19952948  0.04817971    -0.80790
O77         O  0.18684541  0.25289903  0.04949181    -0.80790
O78         O  0.32847695  0.21847921  0.01476628    -0.80740
O79         O  0.16559020  0.20123859  0.02877348    -0.80860
O80         O  0.29541452  0.25665792  0.04641590    -0.80780
O81         O  0.27604377  0.16680577  0.01595914    -0.80760
O82         O  0.24304380  0.30967314  0.04937020    -0.80800
C83         C  0.26950049  0.33309666  0.04775250     1.08930
C84         C  0.25828733  0.17105188  0.04383637     1.08810
C85         C  0.16120237  0.22882329  0.04813509     1.08950
C86         C  0.32369947  0.23548238  0.04243338     1.08830
O87         O  0.33054105  0.27651465  0.98213103    -0.80760
O88         O  0.18350043  0.22428659  0.96554815    -0.80840
O89         O  0.21799398  0.32923624  0.98225748    -0.80780
O90         O  0.25795948  0.18461730  0.94639448    -0.80760
O91         O  0.21734326  0.16593903  0.98419024    -0.80810
O92         O  0.27224201  0.31237379  0.96348442    -0.80770
O93         O  0.31097223  0.23683062  0.94558743    -0.80730
O94         O  0.16801433  0.27886558  0.98172086    -0.80800
Co95       Co  0.28071199  0.28458515  0.00552990     1.51530
Co96       Co  0.21053250  0.21515482  0.00714056     1.51690
Co97       Co  0.20931988  0.28711395  0.01330575     1.51570
Co98       Co  0.29047120  0.20472793  0.98096905     1.51470
O99         O  0.25005712  0.24572480  0.99041425    -1.42700
C100        C  0.33437528  0.25989376  0.95408188     1.08850
C101        C  0.16357095  0.25249688  0.96227481     1.08940
C102        C  0.24449318  0.33370202  0.96171094     1.08880
C103        C  0.23444431  0.16162170  0.95593507     1.08860
C104        C  0.02282807  0.23924856  0.12394657     0.02500
C105        C  0.02135222  0.24281372  0.15914367    -0.13650
C106        C  0.48699667  0.24931740  0.17614254     0.00000
C107        C  0.45396783  0.25067257  0.15758771    -0.12170
C108        C  0.45519928  0.24584044  0.12248849     0.02500
C109        C  0.48976160  0.24064469  0.10569947    -0.11590
H110        H  0.04698132  0.24069745  0.17317723     0.08090
H111        H  0.42719742  0.25477257  0.17048877     0.05620
H112        H  0.49091436  0.23734141  0.07845510     0.05470
C113        C  0.23515819  0.46087952  0.87513262     0.02500
C114        C  0.23953226  0.46247905  0.83992333    -0.13650
C115        C  0.24256064  0.49644758  0.82328719     0.00000
C116        C  0.24394805  0.02849419  0.84298533    -0.12170
C117        C  0.23836089  0.02730373  0.87838716     0.02500
C118        C  0.23256789  0.49326350  0.89388713    -0.11590
H119        H  0.24007918  0.43723630  0.82559550     0.08090
H120        H  0.24912004  0.05443871  0.83069629     0.05620
H121        H  0.22684583  0.49162008  0.92083600     0.05470
C122        C  0.03854367  0.26580310  0.87494507     0.02500
C123        C  0.03939094  0.26256316  0.83976388    -0.13650
C124        C  0.50602328  0.25870281  0.82230490     0.00000
C125        C  0.47222349  0.25628020  0.84071852    -0.12170
C126        C  0.47123177  0.26066730  0.87597438     0.02500
C127        C  0.50443850  0.26694405  0.89259783    -0.11590
H128        H  0.06596223  0.26242112  0.82618282     0.08090
H129        H  0.44676740  0.25091561  0.82757464     0.05620
H130        H  0.50414214  0.27110818  0.91971981     0.05470
C131        C  0.23713201  0.06164698  0.89892539    -0.06750
C132        C  0.21745508  0.09277409  0.88656553    -0.17880
C133        C  0.21546115  0.12587689  0.90444850     0.10450
C134        C  0.23172616  0.12751963  0.93661575    -0.06680
C135        C  0.25082519  0.09649520  0.94933476    -0.17910
C136        C  0.25479208  0.06404055  0.93057764     0.10480
S137        S  0.19175530  0.16434308  0.88427078    -0.32880
S138        S  0.28581019  0.02782414  0.94600304    -0.32880
H139        H  0.29077302  0.04229262  0.97845326     0.28490
H140        H  0.20019010  0.19190413  0.90708627     0.28480
H141        H  0.20370033  0.09146968  0.86248262     0.19080
H142        H  0.26461569  0.09852644  0.97335052     0.19080
C143        C  0.24299369  0.36438115  0.93704391    -0.06750
C144        C  0.20791626  0.37722752  0.92578847    -0.17880
C145        C  0.20447339  0.40755672  0.90414044     0.10450
C146        C  0.23680129  0.42547433  0.89317950    -0.06680
C147        C  0.27186708  0.41233741  0.90372140    -0.17910
C148        C  0.27530472  0.38267216  0.92601550     0.10480
S149        S  0.15805725  0.42308081  0.89284594    -0.32880
S150        S  0.32105277  0.37270886  0.94246923    -0.32880
H151        H  0.30830082  0.37280761  0.97629144     0.28490
H152        H  0.16813637  0.43997194  0.86218876     0.28480
H153        H  0.18285305  0.36394658  0.93438864     0.19080
H154        H  0.29661916  0.42685852  0.89620844     0.19080
C155        C  0.35429567  0.23529010  0.06699816    -0.06750
C156        C  0.36024805  0.26775969  0.08487843    -0.17880
C157        C  0.39317080  0.27239902  0.10257233     0.10450
C158        C  0.42030344  0.24348603  0.10358507    -0.06680
C159        C  0.41379503  0.21061293  0.08692157    -0.17910
C160        C  0.38127558  0.20608920  0.06881649     0.10480
S161        S  0.39998017  0.31663879  0.12121851    -0.32880
S162        S  0.37646133  0.16230523  0.04867717    -0.32880
H163        H  0.33754527  0.16189386  0.05258886     0.28490
H164        H  0.43902856  0.31601866  0.11669608     0.28480
H165        H  0.34034239  0.29066919  0.08323040     0.19080
H166        H  0.43427384  0.18813835  0.08815632     0.19080
C167        C  0.12765228  0.23259429  0.06998313    -0.06750
C168        C  0.11641735  0.20257149  0.08947529    -0.17880
C169        C  0.08244000  0.20392784  0.10766472     0.10450
C170        C  0.05904128  0.23577850  0.10587385    -0.06680
C171        C  0.07034084  0.26571311  0.08647946    -0.17910
C172        C  0.10449023  0.26466043  0.06893931     0.10480
S173        S  0.07021294  0.16400311  0.13194190    -0.32880
S174        S  0.11555486  0.30402783  0.04357166    -0.32880
H175        H  0.14872470  0.31031816  0.06064590     0.28490
H176        H  0.03132770  0.16866651  0.12892695     0.28480
H177        H  0.13393956  0.17781307  0.09012841     0.19080
H178        H  0.05240683  0.29016081  0.08510049     0.19080
C179        C  0.43566044  0.25911342  0.89556555    -0.06750
C180        C  0.40406899  0.27850265  0.88349911    -0.17880
C181        C  0.37019811  0.27935166  0.90169477     0.10450
C182        C  0.36866059  0.26257182  0.93389515    -0.06680
C183        C  0.40002520  0.24329532  0.94602461    -0.17910
C184        C  0.43285975  0.23996839  0.92669594     0.10480
S185        S  0.33077735  0.30222881  0.88191246    -0.32880
S186        S  0.46857656  0.20842955  0.94211281    -0.32880
H187        H  0.48154896  0.19706033  0.90989544     0.28490
H188        H  0.30256520  0.29223814  0.90478017     0.28480
H189        H  0.40569965  0.29304488  0.85959827     0.19080
H190        H  0.39817517  0.22881507  0.96998926     0.19080
C191        C  0.13405063  0.25423467  0.93718287    -0.06750
C192        C  0.12883757  0.28639883  0.91801784    -0.17880
C193        C  0.09838378  0.29093765  0.89665826     0.10450
C194        C  0.07290866  0.26253017  0.89433651    -0.06680
C195        C  0.07864038  0.23013549  0.91288551    -0.17910
C196        C  0.10881994  0.22563216  0.93420534     0.10480
S197        S  0.09292861  0.33386064  0.87425647    -0.32880
S198        S  0.11085640  0.18479798  0.95995780    -0.32880
H199        H  0.14563549  0.17245219  0.94665250     0.28490
H200        H  0.05380243  0.33419209  0.87247900     0.28480
H201        H  0.14806281  0.30845975  0.92039292     0.19080
H202        H  0.05874823  0.20849355  0.91138991     0.19080
C203        C  0.25485097  0.13925874  0.06698234    -0.06750
C204        C  0.23385261  0.11012927  0.05574438    -0.17880
C205        C  0.23054217  0.07785447  0.07463340     0.10450
C206        C  0.25102972  0.07288962  0.10469939    -0.06680
C207        C  0.27127399  0.10264257  0.11641664    -0.17910
C208        C  0.27244584  0.13600365  0.09851588     0.10480
S209        S  0.19802730  0.04525355  0.05961657    -0.32880
S210        S  0.29770823  0.17255733  0.11695551    -0.32880
H211        H  0.27857824  0.20156875  0.10070386     0.28490
H212        H  0.18717106  0.03288629  0.09196222     0.28480
H213        H  0.21914710  0.11281803  0.03214244     0.19080
H214        H  0.28677043  0.09983411  0.13955657     0.19080
C215        C  0.26906091  0.36586310  0.07043192    -0.06750
C216        C  0.29442939  0.39365966  0.06318886    -0.17880
C217        C  0.29284551  0.42717806  0.08045137     0.10450
C218        C  0.26429605  0.43431042  0.10501270    -0.06680
C219        C  0.23944199  0.40638445  0.11283598    -0.17830
C220        C  0.24195325  0.37228213  0.09660144     0.10480
S221        S  0.32887787  0.45904081  0.07048996    -0.32880
S222        S  0.20992653  0.33837508  0.11119134    -0.32880
H223        H  0.23769044  0.31022285  0.11286894     0.28490
H224        H  0.33111899  0.47289148  0.10348310     0.28480
H225        H  0.31575297  0.38950465  0.04364264     0.19080
H226        H  0.21776014  0.41113522  0.13197512     0.19080
C227        C  0.51099916  0.24970760  0.71387103    -0.06750
C228        C  0.48457533  0.27371794  0.72953992    -0.17880
C229        C  0.48290386  0.27785881  0.76458644     0.10450
C230        C  0.50681148  0.25597865  0.78496518    -0.06680
C231        C  0.53267452  0.23130752  0.76938318    -0.17910
C232        C  0.53561070  0.22846464  0.73409955     0.10480
S233        S  0.45141218  0.31329118  0.78127135    -0.32880
S234        S  0.07265339  0.19981857  0.71545327    -0.32880
H235        H  0.58703841  0.18563439  0.74580522     0.28490
H236        H  0.47495221  0.32388326  0.80724551     0.28480
H237        H  0.46584877  0.29039056  0.71420903     0.19080
H238        H  0.05108326  0.21468982  0.78499448     0.19080
C239        C  0.24561349  0.49525838  0.71354611    -0.06750
C240        C  0.22331776  0.02163635  0.73110118    -0.17880
C241        C  0.22159295  0.02266820  0.76659822     0.10450
C242        C  0.24436388  0.49794642  0.78547509    -0.06680
C243        C  0.26735919  0.47213212  0.76787025    -0.17910
C244        C  0.26733726  0.46972128  0.73251179     0.10480
S245        S  0.18783425  0.05368355  0.78707528    -0.32880
S246        S  0.29339511  0.43160185  0.71368482    -0.32880
H247        H  0.26766525  0.42568125  0.68806476     0.28490
H248        H  0.17393901  0.07056236  0.75767226     0.28480
H249        H  0.20655829  0.04118328  0.71682442     0.19080
H250        H  0.28459965  0.45268028  0.78186368     0.19080
C251        C  0.25282405  0.49730835  0.28655745    -0.06750
C252        C  0.22540737  0.01907361  0.27026606    -0.17880
C253        C  0.22353919  0.02057868  0.23486754     0.10450
C254        C  0.25091584  0.50143465  0.21480008    -0.06680
C255        C  0.27815242  0.47954984  0.23118135    -0.17910
C256        C  0.27869435  0.47637807  0.26644559     0.10480
S257        S  0.18439964  0.04581394  0.21718121    -0.32880
S258        S  0.31186646  0.44355017  0.28390066    -0.32880
H259        H  0.28873723  0.43310694  0.31119435     0.28490
H260        H  0.18055390  0.02238918  0.18941693     0.28480
H261        H  0.20493178  0.03475318  0.28525400     0.19080
H262        H  0.29897820  0.46418280  0.21631594     0.19080
C263        C  0.48223136  0.25279383  0.28480097    -0.06750
C264        C  0.00766744  0.27442310  0.26692796    -0.17880
C265        C  0.00869071  0.27531933  0.23160991     0.10450
C266        C  0.48516783  0.25243838  0.21345614    -0.06680
C267        C  0.45941569  0.23122241  0.23138373    -0.17910
C268        C  0.45685842  0.23204695  0.26660492     0.10480
S269        S  0.03943820  0.30737403  0.21155675    -0.32880
S270        S  0.41949668  0.20736575  0.28647882    -0.32880
H271        H  0.41321820  0.23238325  0.31311577     0.28490
H272        H  0.01646398  0.31488144  0.18379822     0.28480
H273        H  0.02676838  0.29101951  0.28061654     0.19080
H274        H  0.44083825  0.21396009  0.21781915     0.19080
C275        C  0.51846718  0.31818880  0.60455646    -0.06750
C276        C  0.49163566  0.34646305  0.61071582    -0.17880
C277        C  0.49105068  0.37856858  0.59114441     0.10450
C278        C  0.51661695  0.38168998  0.56362028    -0.06680
C279        C  0.04419544  0.35374788  0.55858038    -0.17910
C280        C  0.04610022  0.32288838  0.57919318     0.10480
S281        S  0.45805383  0.41455475  0.60343988    -0.32880
S282        S  0.08506299  0.29095411  0.57209501    -0.32880
H283        H  0.08792578  0.27984143  0.60605872     0.28490
H284        H  0.48378769  0.44259588  0.59943416     0.28480
H285        H  0.47090547  0.34343016  0.63078591     0.19080
H286        H  0.06484999  0.35576873  0.53832107     0.19080
C287        C  0.51503814  0.12026915  0.56203757    -0.06750
C288        C  0.04721471  0.12795340  0.57986099    -0.17880
C289        C  0.04813894  0.15912356  0.60043184     0.10450
C290        C  0.51617389  0.18284277  0.60314847    -0.06680
C291        C  0.48435325  0.17529164  0.58499525    -0.17910
C292        C  0.48332450  0.14422079  0.56487360     0.10480
S293        S  0.09084800  0.16727316  0.62209386    -0.32880
S294        S  0.44090964  0.13701527  0.54277497    -0.32880
H295        H  0.43404716  0.10464191  0.56081681     0.28490
H296        H  0.08692302  0.20569875  0.62278953     0.28480
H297        H  0.07152721  0.10964009  0.57785994     0.19080
H298        H  0.46002255  0.19370986  0.58668561     0.19080
C299        C  0.48287916  0.38317339  0.43496160    -0.06750
C300        C  0.45685061  0.35587914  0.44133691    -0.17880
C301        C  0.45561717  0.32482537  0.42129191     0.10450
C302        C  0.48226027  0.31942571  0.39489684    -0.06680
C303        C  0.00765373  0.34700425  0.38758752    -0.17910
C304        C  0.00770987  0.37918218  0.40682298     0.10480
S305        S  0.41854617  0.29373110  0.43028441    -0.32880
S306        S  0.03909665  0.41412347  0.39334107    -0.32880
H307        H  0.01316190  0.44335586  0.39896928     0.28490
H308        H  0.41320206  0.28453353  0.39628073     0.28480
H309        H  0.43696011  0.35856774  0.46226067     0.19080
H310        H  0.02760307  0.34340649  0.36680313     0.19080
C311        C  0.48475830  0.12036482  0.43447504    -0.06750
C312        C  0.45116397  0.13436370  0.42145401    -0.17880
C313        C  0.45051753  0.16588869  0.40116931     0.10450
C314        C  0.48421359  0.18379954  0.39414040    -0.06680
C315        C  0.01771695  0.16974333  0.40715885    -0.17910
C316        C  0.01846502  0.13807840  0.42708885     0.10480
S317        S  0.40593302  0.18145706  0.38507679    -0.32880
S318        S  0.06242580  0.12147586  0.44407896    -0.32880
H319        H  0.08500980  0.14812367  0.42917685     0.28490
H320        H  0.41423915  0.21838754  0.38022590     0.28480
H321        H  0.42541806  0.12056776  0.42698123     0.19080
H322        H  0.04324295  0.18395547  0.40187125     0.19080
C323        C  0.10909167  0.50456818  0.56569809    -0.06750
C324        C  0.12789603  0.03707621  0.57162365    -0.17880
C325        C  0.15972530  0.03727335  0.59178893     0.10450
C326        C  0.17360709  0.50416436  0.60615651    -0.06680
C327        C  0.15452919  0.47197246  0.60103301    -0.17910
C328        C  0.12306780  0.47166017  0.58072019     0.10480
S329        S  0.18183641  0.08040006  0.59749660    -0.32880
S330        S  0.10544524  0.42748612  0.57160100    -0.32880
H331        H  0.11058847  0.43236298  0.53654034     0.28490
H332        H  0.19860108  0.07156552  0.62840789     0.28480
H333        H  0.11805501  0.06244313  0.56006889     0.19080
H334        H  0.16555214  0.44638664  0.61140313     0.19080
C335        C  0.38021908  0.48937424  0.56231454    -0.06750
C336        C  0.36799580  0.45752552  0.57841621    -0.17880
C337        C  0.33454243  0.45791784  0.59759646     0.10450
C338        C  0.31257017  0.49077110  0.60038700    -0.06680
C339        C  0.32416091  0.02215395  0.58326685    -0.17910
C340        C  0.35764313  0.02183622  0.56432367     0.10480
S341        S  0.32143800  0.41567797  0.61767156    -0.32880
S342        S  0.37041878  0.06269488  0.54162681    -0.32880
H343        H  0.33920514  0.08482834  0.55146575     0.28490
H344        H  0.28264861  0.42275673  0.61739258     0.28480
H345        H  0.38459427  0.43231434  0.57617356     0.19080
H346        H  0.30693525  0.04703236  0.58504488     0.19080
C347        C  0.11675708  0.48285869  0.43360619    -0.06750
C348        C  0.12526509  0.01523478  0.41600679    -0.17880
C349        C  0.15952795  0.01914480  0.39913383     0.10450
C350        C  0.18606541  0.48975441  0.39869976    -0.06680
C351        C  0.17788190  0.45724400  0.41603672    -0.17910
C352        C  0.14351955  0.45338165  0.43330696     0.10480
S353        S  0.16806412  0.06278948  0.37933032    -0.32880
S354        S  0.13535234  0.40994605  0.45349586    -0.32880
H355        H  0.09713017  0.40968911  0.44631113     0.28490
H356        H  0.20669783  0.06225256  0.38487033     0.28480
H357        H  0.10560634  0.03844646  0.41639894     0.19080
H358        H  0.19809029  0.43449897  0.41553409     0.19080
C359        C  0.32411944  0.50788520  0.39401357    -0.06750
C360        C  0.35366176  0.48242115  0.38812940    -0.17880
C361        C  0.38713916  0.48394764  0.40572045     0.10450
C362        C  0.39132049  0.51122377  0.43084340    -0.06680
C363        C  0.36211538  0.03774191  0.43535432    -0.17910
C364        C  0.32907066  0.03663343  0.41708059     0.10480
S365        S  0.42236905  0.44932344  0.39523343    -0.32880
S366        S  0.29433164  0.07281842  0.42431505    -0.32880
H367        H  0.28011140  0.07272648  0.39145378     0.28490
H368        H  0.45020902  0.47504139  0.38962314     0.28480
H369        H  0.35032656  0.46060915  0.37002361     0.19080
H370        H  0.36464604  0.05939904  0.45372949     0.19080
O371        O  0.45033100  0.98844695  0.45186600    -0.80760
O372        O  0.05525931  0.50516692  0.44654314    -0.80790
O373        O  0.46744449  0.58697607  0.48383786    -0.80790
O374        O  0.01081281  0.93525245  0.46213045    -0.80740
O375        O  0.00672020  0.56118543  0.44725445    -0.80860
O376        O  0.45434252  0.91957339  0.47796176    -0.80780
O377        O  0.07795044  0.96554148  0.48119116    -0.80760
O378        O  0.41951649  0.53043749  0.48195796    -0.80800
C379        C  0.42267355  0.01067749  0.45541099     1.08930
C380        C  0.08134336  0.48310452  0.45392810     1.08810
C381        C  0.48494459  0.58728225  0.45560712     1.08950
C382        C  0.98286269  0.91395881  0.45919637     1.08830
O383        O  0.48803474  0.93547931  0.53598030    -0.80760
O384        O  0.03148235  0.58488136  0.51307340    -0.80840
O385        O  0.44106124  0.51042528  0.55141025    -0.80780
O386        O  0.05047758  0.98411108  0.54595582    -0.80760
O387        O  0.07973832  0.52528406  0.51506325    -0.80810
O388        O  0.42111286  0.97065794  0.51658009    -0.80770
O389        O  0.04412314  0.91570234  0.51946560    -0.80730
O390        O  0.49112631  0.56321313  0.55009131    -0.80800
Co391      Co  0.47111972  0.96472151  0.49270350     1.51530
Co392      Co  0.04093537  0.54198052  0.48104184     1.51690
Co393      Co  0.45734673  0.54527706  0.51635404     1.51570
Co394      Co  0.02815966  0.96254297  0.50547763     1.51470
O395        O  0.49951631  0.01056808  0.49960463    -1.42700
C396        C  0.01597047  0.91219425  0.53876943     1.08850
C397        C  0.51385318  0.58706497  0.54131507     1.08940
C398        C  0.41625753  0.98890712  0.54335440     1.08880
C399        C  0.07758671  0.50525144  0.54157746     1.08860
C400        C  0.48533011  0.71837003  0.37515012     0.02500
C401        C  0.48671996  0.75127969  0.39282505    -0.13650
C402        C  0.48466642  0.78486248  0.37561303     0.00000
C403        C  0.48332901  0.78520540  0.34025159    -0.12170
C404        C  0.48333719  0.75216541  0.32216065     0.02500
C405        C  0.48472494  0.71869823  0.33984278    -0.11590
H406        H  0.48814122  0.75073165  0.42018673     0.08090
H407        H  0.48131657  0.81114957  0.32689177     0.05620
H408        H  0.48512250  0.69297409  0.32626502     0.05470
C409        C  0.28829828  0.00278709  0.37663351     0.02500
C410        C  0.28726747  0.00308690  0.34113542    -0.13650
C411        C  0.25379941  0.99718522  0.32425913     0.00000
C412        C  0.22095683  0.99207750  0.34351360    -0.12170
C413        C  0.22149941  0.99210420  0.37899308     0.02500
C414        C  0.25530199  0.99689301  0.39543576    -0.11590
H415        H  0.31255426  0.00823225  0.32666367     0.08090
H416        H  0.19481594  0.98815971  0.33093545     0.05620
H417        H  0.25575994  0.49682170  0.42283212     0.05470
C418        C  0.27749224  0.99359386  0.62079608     0.02500
C419        C  0.24317162  0.99833577  0.60465284    -0.13650
C420        C  0.20973608  0.00118970  0.62362691     0.00000
C421        C  0.21071833  0.99895793  0.65901236    -0.12170
C422        C  0.24500660  0.99525687  0.67576145     0.02500
C423        C  0.27836798  0.99308155  0.65627118    -0.11590
H424        H  0.24243697  0.49928009  0.57726702     0.08090
H425        H  0.18469883  0.00024449  0.67346431     0.05620
H426        H  0.30508240  0.99137760  0.66858288     0.05470
C427        C  0.51540646  0.71689722  0.62284531     0.02500
C428        C  0.51539299  0.75031744  0.60560573    -0.13650
C429        C  0.51600348  0.78333792  0.62334653     0.00000
C430        C  0.51487401  0.78279902  0.65871565    -0.12170
C431        C  0.51345261  0.74938741  0.67643149     0.02500
C432        C  0.51344832  0.71637239  0.65823155    -0.11590
H433        H  0.51564981  0.75054869  0.57817687     0.08090
H434        H  0.51564800  0.80837903  0.67245359     0.05620
H435        H  0.51152828  0.69041873  0.67140940     0.05470
C436        C  0.25980238  0.96991419  0.12341293     0.02500
C437        C  0.25621650  0.96987933  0.15878335    -0.13650
C438        C  0.25188204  0.00273366  0.17702729     0.00000
C439        C  0.25041690  0.53624479  0.15919994    -0.12170
C440        C  0.25279286  0.53708953  0.12355377     0.02500
C441        C  0.25819958  0.00363821  0.10604337    -0.11590
H442        H  0.25732558  0.94399539  0.17229547     0.08090
H443        H  0.24746617  0.56166810  0.17313108     0.05620
H444        H  0.26120658  0.00377382  0.07875972     0.05470
O445        O  0.29617138  0.82799489  0.02641810    -0.80760
O446        O  0.23795327  0.69952960  0.04817964    -0.80790
O447        O  0.18684548  0.75289937  0.04949165    -0.80790
O448        O  0.32847694  0.71847894  0.01476635    -0.80740
O449        O  0.16559016  0.70123895  0.02877334    -0.80860
O450        O  0.29541455  0.75665789  0.04641575    -0.80780
O451        O  0.27604354  0.66680565  0.01595918    -0.80760
O452        O  0.24304407  0.80967342  0.04936989    -0.80800
C453        C  0.26950102  0.83309669  0.04775216     1.08930
C454        C  0.25828704  0.67105187  0.04383637     1.08810
C455        C  0.16120243  0.72882363  0.04813500     1.08950
C456        C  0.32369945  0.73548228  0.04243337     1.08830
O457        O  0.33054130  0.77651427  0.98213087    -0.80760
O458        O  0.18350053  0.72428674  0.96554797    -0.80840
O459        O  0.21799440  0.82923624  0.98225706    -0.80780
O460        O  0.25795953  0.68461709  0.94639448    -0.80760
O461        O  0.21734307  0.66593912  0.98419016    -0.80810
O462        O  0.27224240  0.81237357  0.96348408    -0.80770
O463        O  0.31097245  0.73683016  0.94558738    -0.80730
O464        O  0.16801450  0.77886575  0.98172066    -0.80800
Co465      Co  0.28071221  0.78458502  0.00552965     1.51530
Co466      Co  0.21053251  0.71515496  0.00714043     1.51690
Co467      Co  0.20932014  0.78711409  0.01330548     1.51570
Co468      Co  0.29047122  0.70472769  0.98096907     1.51470
O469        O  0.25005726  0.74572474  0.99041408    -1.42700
C470        C  0.33437550  0.75989332  0.95408176     1.08850
C471        C  0.16357107  0.75249704  0.96227464     1.08940
C472        C  0.24449365  0.83370190  0.96171055     1.08880
C473        C  0.23444418  0.66162165  0.95593504     1.08860
C474        C  0.02282810  0.73924870  0.12394645     0.02500
C475        C  0.02135222  0.74281384  0.15914355    -0.13650
C476        C  0.48699666  0.74931761  0.17614244     0.00000
C477        C  0.45396784  0.75067287  0.15758758    -0.12170
C478        C  0.45519930  0.74584062  0.12248837     0.02500
C479        C  0.48976162  0.74064480  0.10569936    -0.11590
H480        H  0.04698132  0.74069747  0.17317712     0.08090
H481        H  0.42719742  0.75477299  0.17048859     0.05620
H482        H  0.49091438  0.73734148  0.07845500     0.05470
C483        C  0.23515947  0.96087957  0.87513236     0.02500
C484        C  0.23953429  0.96247921  0.83992313    -0.13650
C485        C  0.24256302  0.99644779  0.82328715     0.00000
C486        C  0.24394606  0.52849405  0.84298524    -0.12170
C487        C  0.23835968  0.52730368  0.87838717     0.02500
C488        C  0.23256875  0.99326351  0.89388693    -0.11590
H489        H  0.24008153  0.93723651  0.82559523     0.08090
H490        H  0.24911776  0.55443854  0.83069604     0.05620
H491        H  0.22684610  0.99162000  0.92083570     0.05470
C492        C  0.03854377  0.76580307  0.87494488     0.02500
C493        C  0.03939108  0.76256313  0.83976369    -0.13650
C494        C  0.50602345  0.75870282  0.82230465     0.00000
C495        C  0.47222362  0.75628028  0.84071822    -0.12170
C496        C  0.47123188  0.76066725  0.87597409     0.02500
C497        C  0.50443860  0.76694397  0.89259758    -0.11590
H498        H  0.06596238  0.76242101  0.82618264     0.08090
H499        H  0.44676753  0.75091582  0.82757428     0.05620
H500        H  0.50414220  0.77110805  0.91971957     0.05470
C501        C  0.23713120  0.56164697  0.89892532    -0.06750
C502        C  0.21745385  0.59277400  0.88656579    -0.17880
C503        C  0.21546020  0.62587680  0.90444877     0.10450
C504        C  0.23172589  0.62751960  0.93661572    -0.06680
C505        C  0.25082540  0.59649527  0.94933438    -0.17910
C506        C  0.25479200  0.56404063  0.93057721     0.10480
S507        S  0.19175371  0.66434289  0.88427149    -0.32880
S508        S  0.28581059  0.52782433  0.94600206    -0.32880
H509        H  0.29077418  0.54229288  0.97845213     0.28490
H510        H  0.20019071  0.69190432  0.90708584     0.28480
H511        H  0.20369856  0.59146951  0.86248315     0.19080
H512        H  0.26461641  0.59852657  0.97334988     0.19080
C513        C  0.24299434  0.86438104  0.93704351    -0.06750
C514        C  0.20791699  0.87722762  0.92578804    -0.17880
C515        C  0.20447431  0.90755688  0.90414006     0.10450
C516        C  0.23680233  0.92547432  0.89317917    -0.06680
C517        C  0.27186804  0.91233718  0.90372106    -0.17910
C518        C  0.27530549  0.88267189  0.92601514     0.10480
S519        S  0.15805828  0.92308123  0.89284551    -0.32880
S520        S  0.32105346  0.87270837  0.94246893    -0.32880
H521        H  0.30830145  0.87280730  0.97629113     0.28490
H522        H  0.16813759  0.93997243  0.86218840     0.28480
H523        H  0.18285370  0.86394678  0.93438816     0.19080
H524        H  0.29662022  0.92685815  0.89620813     0.19080
C525        C  0.35429562  0.73529012  0.06699819    -0.06750
C526        C  0.36024821  0.76775993  0.08487805    -0.17880
C527        C  0.39317100  0.77239930  0.10257189     0.10450
C528        C  0.42030345  0.74348617  0.10358497    -0.06680
C529        C  0.41379483  0.71061287  0.08692187    -0.17910
C530        C  0.38127534  0.70608908  0.06881686     0.10480
S531        S  0.39998067  0.81663926  0.12121757    -0.32880
S532        S  0.37646074  0.66230487  0.04867808    -0.32880
H533        H  0.33754466  0.66189393  0.05258961     0.28490
H534        H  0.43902907  0.81601881  0.11669523     0.28480
H535        H  0.34034271  0.79066952  0.08322976     0.19080
H536        H  0.43427350  0.68813819  0.08815688     0.19080
C537        C  0.12765239  0.73259461  0.06998310    -0.06750
C538        C  0.11641745  0.70257177  0.08947520    -0.17880
C539        C  0.08244008  0.70392805  0.10766459     0.10450
C540        C  0.05904133  0.73577869  0.10587374    -0.06680
C541        C  0.07034091  0.76571335  0.08647943    -0.17910
C542        C  0.10449032  0.76466074  0.06893932     0.10480
S543        S  0.07021303  0.66400327  0.13194171    -0.32880
S544        S  0.11555500  0.80402820  0.04357177    -0.32880
H545        H  0.14872479  0.81031850  0.06064612     0.28490
H546        H  0.03132779  0.66866664  0.12892674     0.28480
H547        H  0.13393967  0.67781335  0.09012828     0.19080
H548        H  0.05240689  0.79016105  0.08510049     0.19080
C549        C  0.43566056  0.75911322  0.89556527    -0.06750
C550        C  0.40406905  0.77850242  0.88349891    -0.17880
C551        C  0.37019819  0.77935129  0.90169459     0.10450
C552        C  0.36866076  0.76257139  0.93389495    -0.06680
C553        C  0.40002541  0.74329488  0.94602431    -0.17910
C554        C  0.43285993  0.73996806  0.92669560     0.10480
S555        S  0.33077734  0.80222838  0.88191236    -0.32880
S556        S  0.46857680  0.70842920  0.94211231    -0.32880
H557        H  0.48154916  0.69706012  0.90989489     0.28490
H558        H  0.30256515  0.79223700  0.90477975     0.28480
H559        H  0.40569965  0.79304473  0.85959810     0.19080
H560        H  0.39817544  0.72881456  0.96998893     0.19080
C561        C  0.13405069  0.75423480  0.93718276    -0.06750
C562        C  0.12883776  0.78639882  0.91801752    -0.17880
C563        C  0.09838397  0.79093758  0.89665792     0.10450
C564        C  0.07290874  0.76253018  0.89433636    -0.06680
C565        C  0.07864032  0.73013564  0.91288561    -0.17910
C566        C  0.10881985  0.72563237  0.93420546     0.10480
S567        S  0.09292895  0.83386042  0.87425587    -0.32880
S568        S  0.11085607  0.68479845  0.95995829    -0.32880
H569        H  0.14563522  0.67245242  0.94665329     0.28490
H570        H  0.05380275  0.83419203  0.87247851     0.28480
H571        H  0.14806310  0.80845968  0.92039244     0.19080
H572        H  0.05874808  0.70849377  0.91139017     0.19080
C573        C  0.25485033  0.63925874  0.06698231    -0.06750
C574        C  0.23385209  0.61012929  0.05574408    -0.17880
C575        C  0.23054123  0.57785455  0.07463310     0.10450
C576        C  0.25102823  0.57288970  0.10469940    -0.06680
C577        C  0.27127239  0.60264261  0.11641691    -0.17910
C578        C  0.27244467  0.63600365  0.09851611     0.10480
S579        S  0.19802656  0.54525367  0.05961582    -0.32880
S580        S  0.29770701  0.67255723  0.11695599    -0.32880
H581        H  0.27857776  0.70156874  0.10070382     0.28490
H582        H  0.18716974  0.53288648  0.09196134     0.28480
H583        H  0.21914699  0.61281805  0.03214193     0.19080
H584        H  0.28676842  0.59983414  0.13955706     0.19080
C585        C  0.26906182  0.86586310  0.07043160    -0.06750
C586        C  0.29443018  0.89365966  0.06318816    -0.17880
C587        C  0.29284666  0.92717803  0.08045072     0.10450
C588        C  0.26429769  0.93431034  0.10501252    -0.06680
C589        C  0.23944377  0.90638436  0.11283618    -0.17830
C590        C  0.24195467  0.87228208  0.09660154     0.10480
S591        S  0.32887881  0.95904081  0.07048871    -0.32880
S592        S  0.20992824  0.83837498  0.11119188    -0.32880
H593        H  0.23769213  0.81022267  0.11286875     0.28490
H594        H  0.33112060  0.97289146  0.10348180     0.28480
H595        H  0.31575338  0.88950469  0.04364159     0.19080
H596        H  0.21776230  0.91113510  0.13197568     0.19080
C597        C  0.51099938  0.74970767  0.71387082    -0.06750
C598        C  0.48457598  0.77371849  0.72953967    -0.17880
C599        C  0.48290449  0.77785929  0.76458621     0.10450
C600        C  0.50681170  0.75597870  0.78496495    -0.06680
C601        C  0.53267433  0.73130714  0.76938299    -0.17910
C602        C  0.53561046  0.72846421  0.73409935     0.10480
S603        S  0.45141328  0.81329204  0.78127116    -0.32880
S604        S  0.07265249  0.69981735  0.71545312    -0.32880
H605        H  0.58703717  0.68563281  0.74580502     0.28490
H606        H  0.47495336  0.82388361  0.80724547     0.28480
H607        H  0.46584979  0.79039149  0.71420876     0.19080
H608        H  0.05108273  0.71468918  0.78499435     0.19080
C609        C  0.24561787  0.99525876  0.71354607    -0.06750
C610        C  0.22331361  0.52163593  0.73110150    -0.17880
C611        C  0.22158942  0.52266781  0.76659855     0.10450
C612        C  0.24436703  0.99794675  0.78547506    -0.06680
C613        C  0.26736267  0.97213250  0.76787050    -0.17910
C614        C  0.26734135  0.96972168  0.73251203     0.10480
S615        S  0.18783107  0.55368317  0.78707606    -0.32880
S616        S  0.29339952  0.93160228  0.71368538    -0.32880
H617        H  0.26766993  0.92568149  0.68806514     0.28490
H618        H  0.17393520  0.57056185  0.75767322     0.28480
H619        H  0.20655391  0.54118286  0.71682495     0.19080
H620        H  0.28460288  0.95268064  0.78186417     0.19080
C621        C  0.25282855  0.99730846  0.28655740    -0.06750
C622        C  0.22540317  0.51907363  0.27026587    -0.17880
C623        C  0.22353547  0.52057878  0.23486731     0.10450
C624        C  0.25091937  0.00143463  0.21480005    -0.06680
C625        C  0.27815629  0.97954999  0.23118105    -0.17910
C626        C  0.27869872  0.97637830  0.26644530     0.10480
S627        S  0.18439629  0.54581426  0.21718058    -0.32880
S628        S  0.31187126  0.94355062  0.28390005    -0.32880
H629        H  0.28874240  0.93310722  0.31119395     0.28490
H630        H  0.18055085  0.52238961  0.18941617     0.28480
H631        H  0.20492747  0.53475327  0.28525363     0.19080
H632        H  0.29898195  0.96418301  0.21631543     0.19080
C633        C  0.48223137  0.75279400  0.28480092    -0.06750
C634        C  0.00766779  0.77442290  0.26692790    -0.17880
C635        C  0.00869104  0.77531922  0.23160984     0.10450
C636        C  0.48516782  0.75243863  0.21345606    -0.06680
C637        C  0.45941532  0.73122304  0.23138365    -0.17910
C638        C  0.45685804  0.73204760  0.26660484     0.10480
S639        S  0.03943892  0.80737362  0.21155677    -0.32880
S640        S  0.41949574  0.70736713  0.28647867    -0.32880
H641        H  0.41321772  0.73238475  0.31311560     0.28490
H642        H  0.01646474  0.81488140  0.18379828     0.28480
H643        H  0.02676904  0.79101896  0.28061648     0.19080
H644        H  0.44083761  0.71396102  0.21781907     0.19080
C645        C  0.51846972  0.81818878  0.60455636    -0.06750
C646        C  0.49163923  0.84646387  0.61071606    -0.17880
C647        C  0.49105514  0.87856947  0.59114476     0.10450
C648        C  0.51662118  0.88169011  0.56362038    -0.06680
C649        C  0.04419883  0.85374726  0.55858022    -0.17910
C650        C  0.04610278  0.82288761  0.57919291     0.10480
S651        S  0.45805979  0.91455674  0.60344078    -0.32880
S652        S  0.08506446  0.79095216  0.57209434    -0.32880
H653        H  0.08792714  0.77983913  0.60605796     0.28490
H654        H  0.48379446  0.94259703  0.59943419     0.28480
H655        H  0.47090914  0.84343160  0.63078633     0.19080
H656        H  0.06485323  0.85576758  0.53832072     0.19080
C657        C  0.51503418  0.62026920  0.56203759    -0.06750
C658        C  0.04721075  0.62795214  0.57986158    -0.17880
C659        C  0.04813598  0.65912232  0.60043228     0.10450
C660        C  0.51617188  0.68284289  0.60314825    -0.06680
C661        C  0.48435118  0.67529297  0.58499461    -0.17910
C662        C  0.48332145  0.64422209  0.56487305     0.10480
S663        S  0.09084510  0.66727027  0.62209481    -0.32880
S664        S  0.44090666  0.63701824  0.54277376    -0.32880
H665        H  0.43404346  0.60464409  0.56081407     0.28490
H666        H  0.08692192  0.70569600  0.62278981     0.28480
H667        H  0.07152250  0.60963782  0.57786101     0.19080
H668        H  0.46002121  0.69371215  0.58668457     0.19080
C669        C  0.48288331  0.88317308  0.43496178    -0.06750
C670        C  0.45685427  0.85587931  0.44133725    -0.17880
C671        C  0.45561995  0.82482568  0.42129220     0.10450
C672        C  0.48226273  0.81942553  0.39489694    -0.06680
C673        C  0.00765675  0.84700352  0.38758751    -0.17910
C674        C  0.00771373  0.87918141  0.40682301     0.10480
S675        S  0.41854819  0.79373231  0.43028484    -0.32880
S676        S  0.03910116  0.91412207  0.39334098    -0.32880
H677        H  0.01316692  0.94335491  0.39896912     0.28490
H678        H  0.41320347  0.78453519  0.39628115     0.28480
H679        H  0.43696396  0.85856824  0.46226113     0.19080
H680        H  0.02760588  0.84340539  0.36680301     0.19080
C681        C  0.48475442  0.62036489  0.43447515    -0.06750
C682        C  0.45116048  0.63436482  0.42145418    -0.17880
C683        C  0.45051503  0.66588975  0.40116940     0.10450
C684        C  0.48421171  0.68379948  0.39414034    -0.06680
C685        C  0.01771463  0.66974239  0.40715888    -0.17910
C686        C  0.01846173  0.63807751  0.42708895     0.10480
S687        S  0.40593093  0.68145951  0.38507697    -0.32880
S688        S  0.06242207  0.62147381  0.44407912    -0.32880
H689        H  0.08500690  0.64812090  0.42917693     0.28490
H690        H  0.41423835  0.71838960  0.38022567     0.28480
H691        H  0.42541411  0.62056971  0.42698148     0.19080
H692        H  0.04324108  0.68395378  0.40187130     0.19080
C693        C  0.10909660  0.00456789  0.56569793    -0.06750
C694        C  0.12789156  0.53707636  0.57162326    -0.17880
C695        C  0.15972073  0.53727351  0.59178867     0.10450
C696        C  0.17361216  0.00416405  0.60615614    -0.06680
C697        C  0.15453470  0.97197200  0.60103209    -0.17910
C698        C  0.12307324  0.97165972  0.58071937     0.10480
S699        S  0.18183239  0.58040000  0.59749582    -0.32880
S700        S  0.10545112  0.92748564  0.57159952    -0.32880
H701        H  0.11059381  0.93236329  0.53653890     0.28490
H702        H  0.19859537  0.57156605  0.62840803     0.28480
H703        H  0.11805097  0.56244316  0.56006800     0.19080
H704        H  0.16555801  0.94638609  0.61140175     0.19080
C705        C  0.38022403  0.98937405  0.56231448    -0.06750
C706        C  0.36800123  0.95752552  0.57841681    -0.17880
C707        C  0.33454793  0.95791784  0.59759717     0.10450
C708        C  0.31257526  0.99077090  0.60038718    -0.06680
C709        C  0.32415626  0.52215437  0.58326729    -0.17910
C710        C  0.35763857  0.52183664  0.56432424     0.10480
S711        S  0.32144407  0.91567819  0.61767301    -0.32880
S712        S  0.37041483  0.56269563  0.54162818    -0.32880
H713        H  0.33920132  0.58482919  0.55146727     0.28490
H714        H  0.28265460  0.92275643  0.61739386     0.28480
H715        H  0.38459999  0.93231449  0.57617456     0.19080
H716        H  0.30693090  0.54703295  0.58504575     0.19080
C717        C  0.11676221  0.98285878  0.43360627    -0.06750
C718        C  0.12525970  0.51523449  0.41600628    -0.17880
C719        C  0.15952252  0.51914451  0.39913325     0.10450
C720        C  0.18607063  0.98975453  0.39869998    -0.06680
C721        C  0.17788690  0.95724394  0.41603657    -0.17910
C722        C  0.14352451  0.95338158  0.43330675     0.10480
S723        S  0.16805841  0.56278901  0.37932929    -0.32880
S724        S  0.13535703  0.90994578  0.45349517    -0.32880
H725        H  0.09713484  0.90968920  0.44631054     0.28490
H726        H  0.20669210  0.56225245  0.38486937     0.28480
H727        H  0.10560080  0.53844605  0.41639818     0.19080
H728        H  0.19809513  0.93449877  0.41553365     0.19080
C729        C  0.32412462  0.00788542  0.39401319    -0.06750
C730        C  0.35366683  0.98242122  0.38812914    -0.17880
C731        C  0.38714422  0.98394764  0.40572021     0.10450
C732        C  0.39132564  0.01122386  0.43084307    -0.06680
C733        C  0.36211007  0.53774164  0.43535482    -0.17910
C734        C  0.32906535  0.53663311  0.41708112     0.10480
S735        S  0.42237394  0.94932321  0.39523338    -0.32880
S736        S  0.29432616  0.57281790  0.42431578    -0.32880
H737        H  0.28010594  0.57272615  0.39145450     0.28490
H738        H  0.45021407  0.97504098  0.38962302     0.28480
H739        H  0.35033153  0.96060913  0.37002345     0.19080
H740        H  0.36464064  0.55939870  0.45373008     0.19080
O741        O  0.95032597  0.48844701  0.45186617    -0.80760
O742        O  0.55526445  0.00516707  0.44654311    -0.80790
O743        O  0.96744940  0.08697588  0.48383786    -0.80790
O744        O  0.51080805  0.43525280  0.46213057    -0.80740
O745        O  0.50672544  0.06118579  0.44725441    -0.80860
O746        O  0.95433779  0.41957332  0.47796165    -0.80780
O747        O  0.57794557  0.46554170  0.48119136    -0.80760
O748        O  0.91952151  0.03043741  0.48195775    -0.80800
C749        C  0.92266848  0.51067750  0.45541120     1.08930
C750        C  0.58134840  0.98310453  0.45392806     1.08810
C751        C  0.98494940  0.08728227  0.45560709     1.08950
C752        C  0.48285809  0.41395902  0.45919634     1.08830
O753        O  0.98802995  0.43547912  0.53598031    -0.80760
O754        O  0.53148727  0.08488135  0.51307351    -0.80840
O755        O  0.94106619  0.01042505  0.55141014    -0.80780
O756        O  0.55047269  0.48411128  0.54595600    -0.80760
O757        O  0.57974327  0.02528396  0.51506323    -0.80810
O758        O  0.92110802  0.47065789  0.51658031    -0.80770
O759        O  0.54411846  0.41570259  0.51946558    -0.80730
O760        O  0.99113138  0.06321265  0.55009123    -0.80800
Co761      Co  0.97111482  0.46472150  0.49270360     1.51530
Co762      Co  0.54094042  0.04198059  0.48104185     1.51690
Co763      Co  0.95735172  0.04527684  0.51635394     1.51570
Co764      Co  0.52815479  0.46254317  0.50547781     1.51470
O765        O  0.99951132  0.51056816  0.49960484    -1.42700
C766        C  0.51596584  0.41219420  0.53876940     1.08850
C767        C  0.01385795  0.08706479  0.54131509     1.08940
C768        C  0.91625263  0.48890726  0.54335451     1.08880
C769        C  0.57759165  0.00525124  0.54157736     1.08860
C770        C  0.98533087  0.21837014  0.37515016     0.02500
C771        C  0.98671948  0.25127991  0.39282508    -0.13650
C772        C  0.98466500  0.28486263  0.37561300     0.00000
C773        C  0.98332781  0.28520544  0.34025154    -0.12170
C774        C  0.98333710  0.25216538  0.32216066     0.02500
C775        C  0.98472582  0.21869825  0.33984282    -0.11590
H776        H  0.98814058  0.25073198  0.42018677     0.08090
H777        H  0.98131469  0.31114953  0.32689168     0.05620
H778        H  0.98512421  0.19297407  0.32626507     0.05470
C779        C  0.78829316  0.50278686  0.37663373     0.02500
C780        C  0.78726254  0.50308674  0.34113564    -0.13650
C781        C  0.75379458  0.49718512  0.32425918     0.00000
C782        C  0.72095188  0.49207743  0.34351348    -0.12170
C783        C  0.72149426  0.49210408  0.37899298     0.02500
C784        C  0.75529676  0.49689279  0.39543582    -0.11590
H785        H  0.81254942  0.50823207  0.32666401     0.08090
H786        H  0.69481106  0.48815970  0.33093519     0.05620
H787        H  0.75576531  0.99682197  0.42283203     0.05470
C788        C  0.77748725  0.49359415  0.62079601     0.02500
C789        C  0.74316657  0.49833618  0.60465291    -0.13650
C790        C  0.70973111  0.50118999  0.62362713     0.00000
C791        C  0.71071353  0.49895801  0.65901257    -0.12170
C792        C  0.74500191  0.49525684  0.67576150     0.02500
C793        C  0.77836317  0.49308163  0.65627108    -0.11590
H794        H  0.74244219  0.99927952  0.57726694     0.08090
H795        H  0.68469411  0.50024448  0.67346464     0.05620
H796        H  0.80507767  0.49137759  0.66858265     0.05470
C797        C  0.01540732  0.21689710  0.62284551     0.02500
C798        C  0.01539266  0.25031733  0.60560590    -0.13650
C799        C  0.01600195  0.28333789  0.62334667     0.00000
C800        C  0.01487254  0.28279903  0.65871579    -0.12170
C801        C  0.01345232  0.24938735  0.67643167     0.02500
C802        C  0.01344914  0.21637226  0.65823175    -0.11590
H803        H  0.01564950  0.25054854  0.57817705     0.08090
H804        H  0.01564570  0.30837912  0.67245368     0.05620
H805        H  0.01152993  0.19041852  0.67140959     0.05470
C806        C  0.75980028  0.46991432  0.12341303     0.02500
C807        C  0.75621369  0.46987945  0.15878339    -0.13650
C808        C  0.75187896  0.50273376  0.17702732     0.00000
C809        C  0.75041936  0.03624475  0.15919991    -0.12170
C810        C  0.75279465  0.03708949  0.12355372     0.02500
C811        C  0.75819786  0.50363835  0.10604347    -0.11590
H812        H  0.75732247  0.44399549  0.17229550     0.08090
H813        H  0.74746881  0.06166805  0.17313109     0.05620
H814        H  0.76120540  0.50377397  0.07875986     0.05470
O815        O  0.79617092  0.32799513  0.02641845    -0.80760
O816        O  0.73795334  0.19952954  0.04817971    -0.80790
O817        O  0.68684538  0.25289909  0.04949180    -0.80790
O818        O  0.82847693  0.21847925  0.01476628    -0.80740
O819        O  0.66559016  0.20123866  0.02877345    -0.80860
O820        O  0.79541452  0.25665798  0.04641588    -0.80780
O821        O  0.77604373  0.16680582  0.01595914    -0.80760
O822        O  0.74304379  0.30967317  0.04937019    -0.80800
C823        C  0.76950047  0.33309671  0.04775248     1.08930
C824        C  0.75828729  0.17105193  0.04383638     1.08810
C825        C  0.66120234  0.22882335  0.04813508     1.08950
C826        C  0.82369945  0.23548244  0.04243337     1.08830
O827        O  0.83054104  0.27651470  0.98213101    -0.80760
O828        O  0.68350042  0.22428666  0.96554813    -0.80840
O829        O  0.71799397  0.32923630  0.98225747    -0.80780
O830        O  0.75795946  0.18461734  0.94639449    -0.80760
O831        O  0.71734323  0.16593909  0.98419024    -0.80810
O832        O  0.77224199  0.31237383  0.96348439    -0.80770
O833        O  0.81097222  0.23683065  0.94558743    -0.80730
O834        O  0.66801431  0.27886564  0.98172085    -0.80800
Co835      Co  0.78071198  0.28458520  0.00552988     1.51530
Co836      Co  0.71053248  0.21515488  0.00714055     1.51690
Co837      Co  0.70931987  0.28711400  0.01330574     1.51570
Co838      Co  0.79047118  0.20472797  0.98096905     1.51470
O839        O  0.75005711  0.24572485  0.99041424    -1.42700
C840        C  0.83437527  0.25989379  0.95408187     1.08850
C841        C  0.66357095  0.25249695  0.96227479     1.08940
C842        C  0.74449316  0.33370206  0.96171092     1.08880
C843        C  0.73444429  0.16162175  0.95593507     1.08860
C844        C  0.52282806  0.23924856  0.12394659     0.02500
C845        C  0.52135221  0.24281372  0.15914369    -0.13650
C846        C  0.98699667  0.24931742  0.17614252     0.00000
C847        C  0.95396784  0.25067261  0.15758768    -0.12170
C848        C  0.95519929  0.24584047  0.12248846     0.02500
C849        C  0.98976161  0.24064470  0.10569944    -0.11590
H850        H  0.54698132  0.24069746  0.17317725     0.08090
H851        H  0.92719743  0.25477263  0.17048873     0.05620
H852        H  0.99091437  0.23734141  0.07845508     0.05470
C853        C  0.73515809  0.46087957  0.87513261     0.02500
C854        C  0.73953216  0.46247912  0.83992332    -0.13650
C855        C  0.74256053  0.49644766  0.82328719     0.00000
C856        C  0.74394803  0.02849423  0.84298534    -0.12170
C857        C  0.73836086  0.02730376  0.87838718     0.02500
C858        C  0.73256778  0.49326355  0.89388713    -0.11590
H859        H  0.74007909  0.43723638  0.82559548     0.08090
H860        H  0.74912002  0.05443874  0.83069631     0.05620
H861        H  0.72684572  0.49162011  0.92083600     0.05470
C862        C  0.53854366  0.26580321  0.87494506     0.02500
C863        C  0.53939092  0.26256326  0.83976387    -0.13650
C864        C  0.00602329  0.25870274  0.82230489     0.00000
C865        C  0.97222350  0.25628014  0.84071852    -0.12170
C866        C  0.97123178  0.26066722  0.87597437     0.02500
C867        C  0.00443851  0.26694394  0.89259783    -0.11590
H868        H  0.56596221  0.26242121  0.82618282     0.08090
H869        H  0.94676740  0.25091557  0.82757463     0.05620
H870        H  0.00414215  0.27110806  0.91971982     0.05470
C871        C  0.73713197  0.06164702  0.89892541    -0.06750
C872        C  0.71745506  0.09277413  0.88656553    -0.17880
C873        C  0.71546114  0.12587694  0.90444850     0.10450
C874        C  0.73172613  0.12751967  0.93661576    -0.06680
C875        C  0.75082515  0.09649524  0.94933478    -0.17910
C876        C  0.75479203  0.06404058  0.93057766     0.10480
S877        S  0.69175530  0.16434312  0.88427076    -0.32880
S878        S  0.78581012  0.02782417  0.94600308    -0.32880
H879        H  0.79077293  0.04229264  0.97845330     0.28490
H880        H  0.70019010  0.19190418  0.90708626     0.28480
H881        H  0.70370032  0.09146972  0.86248261     0.19080
H882        H  0.76461564  0.09852648  0.97335054     0.19080
C883        C  0.74299365  0.36438119  0.93704389    -0.06750
C884        C  0.70791622  0.37722756  0.92578846    -0.17880
C885        C  0.70447332  0.40755676  0.90414043     0.10450
C886        C  0.73680121  0.42547437  0.89317948    -0.06680
C887        C  0.77186701  0.41233746  0.90372136    -0.17910
C888        C  0.77530467  0.38267221  0.92601546     0.10480
S889        S  0.65805718  0.42308083  0.89284596    -0.32880
S890        S  0.82105273  0.37270893  0.94246917    -0.32880
H891        H  0.80830080  0.37280765  0.97629139     0.28490
H892        H  0.66813628  0.43997197  0.86218877     0.28480
H893        H  0.68285302  0.36394661  0.93438865     0.19080
H894        H  0.79661908  0.42685857  0.89620839     0.19080
C895        C  0.85429566  0.23529016  0.06699816    -0.06750
C896        C  0.86024809  0.26775979  0.08487835    -0.17880
C897        C  0.89317085  0.27239910  0.10257225     0.10450
C898        C  0.92030345  0.24348608  0.10358504    -0.06680
C899        C  0.91379499  0.21061295  0.08692160    -0.17910
C900        C  0.88127554  0.20608923  0.06881653     0.10480
S901        S  0.89998031  0.31663890  0.12121834    -0.32880
S902        S  0.87646121  0.16230523  0.04867728    -0.32880
H903        H  0.83754515  0.16189393  0.05258895     0.28490
H904        H  0.93902870  0.31601869  0.11669592     0.28480
H905        H  0.84034247  0.29066930  0.08323029     0.19080
H906        H  0.93427377  0.18813835  0.08815639     0.19080
C907        C  0.62765226  0.23259434  0.06998312    -0.06750
C908        C  0.61641736  0.20257155  0.08947531    -0.17880
C909        C  0.58244002  0.20392788  0.10766475     0.10450
C910        C  0.55904127  0.23577852  0.10587386    -0.06680
C911        C  0.57034080  0.26571312  0.08647944    -0.17910
C912        C  0.60449018  0.26466046  0.06893928     0.10480
S913        S  0.57021300  0.16400316  0.13194197    -0.32880
S914        S  0.61555476  0.30402784  0.04357160    -0.32880
H915        H  0.64872462  0.31031821  0.06064580     0.28490
H916        H  0.53132776  0.16866651  0.12892701     0.28480
H917        H  0.63393960  0.17781314  0.09012844     0.19080
H918        H  0.55240677  0.29016080  0.08510046     0.19080
C919        C  0.93566044  0.25911336  0.89556555    -0.06750
C920        C  0.90406901  0.27850262  0.88349911    -0.17880
C921        C  0.87019813  0.27935166  0.90169477     0.10450
C922        C  0.86866059  0.26257183  0.93389515    -0.06680
C923        C  0.90002518  0.24329529  0.94602460    -0.17910
C924        C  0.93285973  0.23996833  0.92669594     0.10480
S925        S  0.83077738  0.30222885  0.88191246    -0.32880
S926        S  0.96857652  0.20842946  0.94211279    -0.32880
H927        H  0.98154891  0.19706023  0.90989542     0.28490
H928        H  0.80256522  0.29223816  0.90478015     0.28480
H929        H  0.90569968  0.29304486  0.85959827     0.19080
H930        H  0.89817514  0.22881504  0.96998925     0.19080
C931        C  0.63405063  0.25423475  0.93718285    -0.06750
C932        C  0.62883757  0.28639891  0.91801783    -0.17880
C933        C  0.59838378  0.29093774  0.89665825     0.10450
C934        C  0.57290865  0.26253027  0.89433650    -0.06680
C935        C  0.57864037  0.23013558  0.91288549    -0.17910
C936        C  0.60881993  0.22563224  0.93420531     0.10480
S937        S  0.59292862  0.33386074  0.87425648    -0.32880
S938        S  0.61085638  0.18479805  0.95995777    -0.32880
H939        H  0.64563548  0.17245226  0.94665247     0.28490
H940        H  0.55380243  0.33419220  0.87247899     0.28480
H941        H  0.64806282  0.30845982  0.92039291     0.19080
H942        H  0.55874822  0.20849365  0.91138989     0.19080
C943        C  0.75485090  0.13925879  0.06698234    -0.06750
C944        C  0.73385256  0.11012932  0.05574436    -0.17880
C945        C  0.73054210  0.07785452  0.07463338     0.10450
C946        C  0.75102962  0.07288968  0.10469939    -0.06680
C947        C  0.77127387  0.10264264  0.11641666    -0.17910
C948        C  0.77244573  0.13600371  0.09851591     0.10480
S949        S  0.69802725  0.04525360  0.05961652    -0.32880
S950        S  0.79770809  0.17255740  0.11695556    -0.32880
H951        H  0.77857816  0.20156881  0.10070386     0.28490
H952        H  0.68717098  0.03288633  0.09196216     0.28480
H953        H  0.71914708  0.11281808  0.03214240     0.19080
H954        H  0.78677028  0.09983418  0.13955661     0.19080
C955        C  0.76906086  0.36586316  0.07043190    -0.06750
C956        C  0.79442933  0.39365973  0.06318884    -0.17880
C957        C  0.79284543  0.42717813  0.08045136     0.10450
C958        C  0.76429596  0.43431047  0.10501267    -0.06680
C959        C  0.73944190  0.40638449  0.11283595    -0.17830
C960        C  0.74195318  0.37228217  0.09660140     0.10480
S961        S  0.82887778  0.45904089  0.07048996    -0.32880
S962        S  0.70992647  0.33837511  0.11119129    -0.32880
H963        H  0.73769039  0.31022290  0.11286892     0.28490
H964        H  0.83111888  0.47289156  0.10348310     0.28480
H965        H  0.81575291  0.38950472  0.04364263     0.19080
H966        H  0.71776005  0.41113526  0.13197508     0.19080
C967        C  0.01099917  0.24970759  0.71387102    -0.06750
C968        C  0.98457534  0.27371793  0.72953992    -0.17880
C969        C  0.98290388  0.27785878  0.76458645     0.10450
C970        C  0.00681149  0.25597860  0.78496517    -0.06680
C971        C  0.03267452  0.23130747  0.76938317    -0.17910
C972        C  0.03561070  0.22846461  0.73409953     0.10480
S973        S  0.95141221  0.31329115  0.78127137    -0.32880
S974        S  0.57265340  0.19981861  0.71545330    -0.32880
H975        H  0.08703839  0.18563433  0.74580518     0.28490
H976        H  0.97495225  0.32388321  0.80724553     0.28480
H977        H  0.96584879  0.29039056  0.71420904     0.19080
H978        H  0.55108326  0.21468988  0.78499450     0.19080
C979        C  0.74561347  0.49525852  0.71354610    -0.06750
C980        C  0.72331777  0.02163637  0.73110119    -0.17880
C981        C  0.72159296  0.02266823  0.76659823     0.10450
C982        C  0.74436379  0.49794651  0.78547508    -0.06680
C983        C  0.76735912  0.47213222  0.76787025    -0.17910
C984        C  0.76733722  0.46972140  0.73251178     0.10480
S985        S  0.68783426  0.05368359  0.78707528    -0.32880
S986        S  0.79339507  0.43160198  0.71368482    -0.32880
H987        H  0.76766522  0.42568138  0.68806476     0.28490
H988        H  0.67393903  0.07056239  0.75767226     0.28480
H989        H  0.70655831  0.04118330  0.71682442     0.19080
H990        H  0.78459957  0.45268038  0.78186369     0.19080
C991        C  0.75282402  0.49730833  0.28655745    -0.06750
C992        C  0.72540730  0.01907364  0.27026607    -0.17880
C993        C  0.72353910  0.02057871  0.23486754     0.10450
C994        C  0.75091576  0.50143466  0.21480007    -0.06680
C995        C  0.77815236  0.47954985  0.23118132    -0.17910
C996        C  0.77869431  0.47637807  0.26644557     0.10480
S997        S  0.68439954  0.04581396  0.21718123    -0.32880
S998        S  0.81186644  0.44355016  0.28390060    -0.32880
H999        H  0.78873722  0.43310691  0.31119430     0.28490
H1000       H  0.68055379  0.02238920  0.18941695     0.28480
H1001       H  0.70493172  0.03475320  0.28525402     0.19080
H1002       H  0.79897813  0.46418282  0.21631590     0.19080
C1003       C  0.98223136  0.25279384  0.28480095    -0.06750
C1004       C  0.50766744  0.27442309  0.26692798    -0.17880
C1005       C  0.50869071  0.27531932  0.23160993     0.10450
C1006       C  0.98516783  0.25243840  0.21345612    -0.06680
C1007       C  0.95941569  0.23122243  0.23138371    -0.17910
C1008       C  0.95685842  0.23204696  0.26660490     0.10480
S1009       S  0.53943818  0.30737403  0.21155677    -0.32880
S1010       S  0.91949668  0.20736576  0.28647879    -0.32880
H1011       H  0.91321820  0.23238325  0.31311575     0.28490
H1012       H  0.51646395  0.31488143  0.18379824     0.28480
H1013       H  0.52676838  0.29101951  0.28061655     0.19080
H1014       H  0.94083825  0.21396012  0.21781912     0.19080
C1015       C  0.01846714  0.31818879  0.60455644    -0.06750
C1016       C  0.99163563  0.34646305  0.61071580    -0.17880
C1017       C  0.99105065  0.37856858  0.59114439     0.10450
C1018       C  0.01661692  0.38168998  0.56362025    -0.06680
C1019       C  0.54419549  0.35374790  0.55858041    -0.17910
C1020       C  0.54610027  0.32288839  0.57919321     0.10480
S1021       S  0.95805381  0.41455476  0.60343987    -0.32880
S1022       S  0.58506304  0.29095413  0.57209505    -0.32880
H1023       H  0.58792582  0.27984143  0.60605876     0.28490
H1024       H  0.98378768  0.44259588  0.59943414     0.28480
H1025       H  0.97090545  0.34343016  0.63078590     0.19080
H1026       H  0.56485004  0.35576875  0.53832110     0.19080
C1027       C  0.01503813  0.12026914  0.56203755    -0.06750
C1028       C  0.54721470  0.12795338  0.57986105    -0.17880
C1029       C  0.54813894  0.15912354  0.60043189     0.10450
C1030       C  0.01617387  0.18284276  0.60314845    -0.06680
C1031       C  0.98435322  0.17529161  0.58499526    -0.17910
C1032       C  0.98332447  0.14422075  0.56487361     0.10480
S1033       S  0.59084799  0.16727310  0.62209395    -0.32880
S1034       S  0.94090960  0.13701520  0.54277501    -0.32880
H1035       H  0.93404713  0.10464187  0.56081690     0.28490
H1036       H  0.58692304  0.20569870  0.62278959     0.28480
H1037       H  0.57152719  0.10964005  0.57786002     0.19080
H1038       H  0.96002251  0.19370980  0.58668565     0.19080
C1039       C  0.98287917  0.38317339  0.43496160    -0.06750
C1040       C  0.95685065  0.35587911  0.44133693    -0.17880
C1041       C  0.95561720  0.32482535  0.42129193     0.10450
C1042       C  0.98226028  0.31942571  0.39489683    -0.06680
C1043       C  0.50765375  0.34700423  0.38758755    -0.17910
C1044       C  0.50770989  0.37918216  0.40682301     0.10480
S1045       S  0.91854623  0.29373106  0.43028446    -0.32880
S1046       S  0.53909673  0.41412342  0.39334115    -0.32880
H1047       H  0.51316197  0.44335583  0.39896929     0.28490
H1048       H  0.91320207  0.28453352  0.39628078     0.28480
H1049       H  0.93696018  0.35856770  0.46226071     0.19080
H1050       H  0.52760312  0.34340646  0.36680319     0.19080
C1051       C  0.98475829  0.12036482  0.43447501    -0.06750
C1052       C  0.95116396  0.13436373  0.42145402    -0.17880
C1053       C  0.95051751  0.16588871  0.40116932     0.10450
C1054       C  0.98421359  0.18379953  0.39414037    -0.06680
C1055       C  0.51771695  0.16974337  0.40715892    -0.17910
C1056       C  0.51846502  0.13807843  0.42708891     0.10480
S1057       S  0.90593299  0.18145713  0.38507686    -0.32880
S1058       S  0.56242579  0.12147593  0.44407908    -0.32880
H1059       H  0.58500978  0.14812378  0.42917701     0.28490
H1060       H  0.91423916  0.21838757  0.38022586     0.28480
H1061       H  0.92541804  0.12056781  0.42698128     0.19080
H1062       H  0.54324294  0.18395553  0.40187135     0.19080
C1063       C  0.60909170  0.50456816  0.56569806    -0.06750
C1064       C  0.62789605  0.03707621  0.57162367    -0.17880
C1065       C  0.65972532  0.03727335  0.59178895     0.10450
C1066       C  0.67360711  0.50416438  0.60615647    -0.06680
C1067       C  0.65452942  0.47197241  0.60103274    -0.17910
C1068       C  0.62306804  0.47166010  0.58071992     0.10480
S1069       S  0.68183643  0.08040006  0.59749662    -0.32880
S1070       S  0.60544572  0.42748602  0.57160043    -0.32880
H1071       H  0.61058872  0.43236323  0.53653980     0.28490
H1072       H  0.69860111  0.07156550  0.62840791     0.28480
H1073       H  0.61805503  0.06244313  0.56006892     0.19080
H1074       H  0.66555253  0.44638656  0.61140268     0.19080
C1075       C  0.88021908  0.48937427  0.56231452    -0.06750
C1076       C  0.86799580  0.45752555  0.57841621    -0.17880
C1077       C  0.83454244  0.45791789  0.59759647     0.10450
C1078       C  0.81257019  0.49077116  0.60038701    -0.06680
C1079       C  0.82416091  0.02215394  0.58326685    -0.17910
C1080       C  0.85764312  0.02183620  0.56432366     0.10480
S1081       S  0.82143801  0.41567803  0.61767158    -0.32880
S1082       S  0.87041875  0.06269486  0.54162679    -0.32880
H1083       H  0.83920511  0.08482832  0.55146573     0.28490
H1084       H  0.78264862  0.42275681  0.61739263     0.28480
H1085       H  0.88459426  0.43231437  0.57617356     0.19080
H1086       H  0.80693524  0.04703235  0.58504488     0.19080
C1087       C  0.61675705  0.48285866  0.43360616    -0.06750
C1088       C  0.62526512  0.01523482  0.41600686    -0.17880
C1089       C  0.65952798  0.01914484  0.39913390     0.10450
C1090       C  0.68606538  0.48975438  0.39869974    -0.06680
C1091       C  0.67788194  0.45724403  0.41603682    -0.17910
C1092       C  0.64351958  0.45338167  0.43330705     0.10480
S1093       S  0.66806418  0.06278954  0.37933045    -0.32880
S1094       S  0.63535245  0.40994613  0.45349608    -0.32880
H1095       H  0.59713031  0.40968905  0.44631126     0.28490
H1096       H  0.70669789  0.06225258  0.38487043     0.28480
H1097       H  0.60560639  0.03844651  0.41639905     0.19080
H1098       H  0.69809038  0.43449903  0.41553428     0.19080
C1099       C  0.82411942  0.50788516  0.39401356    -0.06750
C1100       C  0.85366173  0.48242110  0.38812941    -0.17880
C1101       C  0.88713913  0.48394759  0.40572045     0.10450
C1102       C  0.89132047  0.51122375  0.43084338    -0.06680
C1103       C  0.86211537  0.03774192  0.43535431    -0.17910
C1104       C  0.82907066  0.03663345  0.41708058     0.10480
S1105       S  0.92236901  0.44932337  0.39523346    -0.32880
S1106       S  0.79433163  0.07281843  0.42431505    -0.32880
H1107       H  0.78011141  0.07272651  0.39145378     0.28490
H1108       H  0.95020897  0.47504131  0.38962312     0.28480
H1109       H  0.85032652  0.46060908  0.37002364     0.19080
H1110       H  0.86464603  0.05939905  0.45372948     0.19080
O1111       O  0.95033098  0.98844694  0.45186598    -0.80760
O1112       O  0.55525929  0.50516691  0.44654314    -0.80790
O1113       O  0.96744449  0.58697607  0.48383782    -0.80790
O1114       O  0.51081283  0.93525246  0.46213047    -0.80740
O1115       O  0.50672016  0.56118540  0.44725447    -0.80860
O1116       O  0.95434250  0.91957338  0.47796175    -0.80780
O1117       O  0.57795045  0.96554150  0.48119119    -0.80760
O1118       O  0.91951649  0.53043750  0.48195793    -0.80800
C1119       C  0.92267355  0.01067749  0.45541097     1.08930
C1120       C  0.58134334  0.48310451  0.45392809     1.08810
C1121       C  0.98494460  0.58728226  0.45560709     1.08950
C1122       C  0.48286271  0.91395882  0.45919639     1.08830
O1123       O  0.98803473  0.93547930  0.53598028    -0.80760
O1124       O  0.53148235  0.58488134  0.51307341    -0.80840
O1125       O  0.94106124  0.51042529  0.55141022    -0.80780
O1126       O  0.55047759  0.98411109  0.54595585    -0.80760
O1127       O  0.57973832  0.52528406  0.51506324    -0.80810
O1128       O  0.92111285  0.97065794  0.51658008    -0.80770
O1129       O  0.54412315  0.91570235  0.51946562    -0.80730
O1130       O  0.99112630  0.56321315  0.55009129    -0.80800
Co1131     Co  0.97111971  0.96472150  0.49270348     1.51530
Co1132     Co  0.54093536  0.54198050  0.48104185     1.51690
Co1133     Co  0.95734673  0.54527707  0.51635401     1.51570
Co1134     Co  0.52815967  0.96254298  0.50547765     1.51470
O1135       O  0.99951630  0.01056807  0.49960461    -1.42700
C1136       C  0.51597048  0.91219426  0.53876945     1.08850
C1137       C  0.01385318  0.58706498  0.54131505     1.08940
C1138       C  0.91625753  0.98890711  0.54335439     1.08880
C1139       C  0.57758674  0.50525143  0.54157744     1.08860
C1140       C  0.98533007  0.71837005  0.37515007     0.02500
C1141       C  0.98671991  0.75127970  0.39282500    -0.13650
C1142       C  0.98466637  0.78486249  0.37561298     0.00000
C1143       C  0.98332897  0.78520542  0.34025154    -0.12170
C1144       C  0.98333715  0.75216543  0.32216060     0.02500
C1145       C  0.98472489  0.71869824  0.33984273    -0.11590
H1146       H  0.98814116  0.75073166  0.42018669     0.08090
H1147       H  0.98131654  0.81114958  0.32689173     0.05620
H1148       H  0.98512246  0.69297411  0.32626497     0.05470
C1149       C  0.78829827  0.00278712  0.37663349     0.02500
C1150       C  0.78726744  0.00308694  0.34113540    -0.13650
C1151       C  0.75379938  0.99718525  0.32425913     0.00000
C1152       C  0.72095681  0.99207752  0.34351360    -0.12170
C1153       C  0.72149941  0.99210422  0.37899309     0.02500
C1154       C  0.75530199  0.99689303  0.39543575    -0.11590
H1155       H  0.81255423  0.00823230  0.32666365     0.08090
H1156       H  0.69481591  0.98815974  0.33093547     0.05620
H1157       H  0.75575992  0.49682167  0.42283211     0.05470
C1158       C  0.77749225  0.99359384  0.62079610     0.02500
C1159       C  0.74317163  0.99833575  0.60465286    -0.13650
C1160       C  0.70973609  0.00118969  0.62362693     0.00000
C1161       C  0.71071834  0.99895793  0.65901238    -0.12170
C1162       C  0.74500662  0.99525687  0.67576147     0.02500
C1163       C  0.77836799  0.99308154  0.65627120    -0.11590
H1164       H  0.74243701  0.49928010  0.57726701     0.08090
H1165       H  0.68469885  0.00024449  0.67346433     0.05620
H1166       H  0.80508242  0.99137760  0.66858290     0.05470
C1167       C  0.01540648  0.71689722  0.62284532     0.02500
C1168       C  0.01539301  0.75031745  0.60560574    -0.13650
C1169       C  0.01600349  0.78333792  0.62334654     0.00000
C1170       C  0.01487402  0.78279903  0.65871566    -0.12170
C1171       C  0.01345262  0.74938742  0.67643151     0.02500
C1172       C  0.01344834  0.71637239  0.65823156    -0.11590
H1173       H  0.01564984  0.75054870  0.57817688     0.08090
H1174       H  0.01564801  0.80837903  0.67245360     0.05620
H1175       H  0.01152828  0.69041873  0.67140941     0.05470
C1176       C  0.75980229  0.96991424  0.12341292     0.02500
C1177       C  0.75621640  0.96987938  0.15878334    -0.13650
C1178       C  0.75188194  0.00273371  0.17702728     0.00000
C1179       C  0.75041678  0.53624482  0.15919995    -0.12170
C1180       C  0.75279273  0.53708957  0.12355378     0.02500
C1181       C  0.75819949  0.00363827  0.10604336    -0.11590
H1182       H  0.75732549  0.94399544  0.17229546     0.08090
H1183       H  0.74746604  0.56166812  0.17313110     0.05620
H1184       H  0.76120649  0.00377388  0.07875972     0.05470
O1185       O  0.79617135  0.82799494  0.02641811    -0.80760
O1186       O  0.73795321  0.69952966  0.04817966    -0.80790
O1187       O  0.68684543  0.75289943  0.04949167    -0.80790
O1188       O  0.82847690  0.71847896  0.01476638    -0.80740
O1189       O  0.66559011  0.70123901  0.02877334    -0.80860
O1190       O  0.79541452  0.75665793  0.04641577    -0.80780
O1191       O  0.77604348  0.66680569  0.01595922    -0.80760
O1192       O  0.74304405  0.80967345  0.04936990    -0.80800
C1193       C  0.76950098  0.83309673  0.04775217     1.08930
C1194       C  0.75828697  0.67105192  0.04383640     1.08810
C1195       C  0.66120238  0.72882369  0.04813501     1.08950
C1196       C  0.82369942  0.73548232  0.04243339     1.08830
O1197       O  0.83054128  0.77651430  0.98213089    -0.80760
O1198       O  0.68350050  0.72428680  0.96554798    -0.80840
O1199       O  0.71799438  0.82923628  0.98225708    -0.80780
O1200       O  0.75795949  0.68461712  0.94639451    -0.80760
O1201       O  0.71734302  0.66593917  0.98419019    -0.80810
O1202       O  0.77224238  0.81237360  0.96348409    -0.80770
O1203       O  0.81097243  0.73683016  0.94558741    -0.80730
O1204       O  0.66801447  0.77886581  0.98172067    -0.80800
Co1205     Co  0.78071219  0.78458506  0.00552966     1.51530
Co1206     Co  0.71053247  0.71515502  0.00714044     1.51690
Co1207     Co  0.70932011  0.78711414  0.01330550     1.51570
Co1208     Co  0.79047118  0.70472771  0.98096910     1.51470
O1209       O  0.75005723  0.74572477  0.99041410    -1.42700
C1210       C  0.83437548  0.75989332  0.95408179     1.08850
C1211       C  0.66357105  0.75249710  0.96227464     1.08940
C1212       C  0.74449363  0.83370193  0.96171056     1.08880
C1213       C  0.73444413  0.66162169  0.95593506     1.08860
C1214       C  0.52282807  0.73924868  0.12394650     0.02500
C1215       C  0.52135220  0.74281381  0.15914360    -0.13650
C1216       C  0.98699668  0.74931766  0.17614239     0.00000
C1217       C  0.95396786  0.75067294  0.15758752    -0.12170
C1218       C  0.95519933  0.74584068  0.12248831     0.02500
C1219       C  0.98976164  0.74064483  0.10569931    -0.11590
H1220       H  0.54698130  0.74069746  0.17317716     0.08090
H1221       H  0.92719745  0.75477308  0.17048853     0.05620
H1222       H  0.99091440  0.73734150  0.07845495     0.05470
C1223       C  0.73515944  0.96087961  0.87513237     0.02500
C1224       C  0.73953427  0.96247925  0.83992315    -0.13650
C1225       C  0.74256301  0.99644782  0.82328717     0.00000
C1226       C  0.74394594  0.52849412  0.84298525    -0.12170
C1227       C  0.73835956  0.52730373  0.87838718     0.02500
C1228       C  0.73256871  0.99326354  0.89388695    -0.11590
H1229       H  0.74008152  0.93723654  0.82559525     0.08090
H1230       H  0.74911763  0.55443862  0.83069606     0.05620
H1231       H  0.72684605  0.99162004  0.92083572     0.05470
C1232       C  0.53854378  0.76580313  0.87494485     0.02500
C1233       C  0.53939109  0.76256317  0.83976366    -0.13650
C1234       C  0.00602344  0.75870281  0.82230467     0.00000
C1235       C  0.97222361  0.75628028  0.84071824    -0.12170
C1236       C  0.97123187  0.76066722  0.87597411     0.02500
C1237       C  0.00443859  0.76694390  0.89259761    -0.11590
H1238       H  0.56596239  0.76242105  0.82618262     0.08090
H1239       H  0.94676751  0.75091583  0.82757430     0.05620
H1240       H  0.00414219  0.77110796  0.91971960     0.05470
C1241       C  0.73713108  0.56164701  0.89892534    -0.06750
C1242       C  0.71745374  0.59277405  0.88656582    -0.17880
C1243       C  0.71546010  0.62587685  0.90444880     0.10450
C1244       C  0.73172582  0.62751964  0.93661574    -0.06680
C1245       C  0.75082532  0.59649530  0.94933439    -0.17910
C1246       C  0.75479190  0.56404066  0.93057722     0.10480
S1247       S  0.69175362  0.66434295  0.88427154    -0.32880
S1248       S  0.78581048  0.52782435  0.94600206    -0.32880
H1249       H  0.79077408  0.54229289  0.97845214     0.28490
H1250       H  0.70019072  0.69190438  0.90708584     0.28480
H1251       H  0.70369843  0.59146957  0.86248319     0.19080
H1252       H  0.76461634  0.59852660  0.97334989     0.19080
C1253       C  0.74299432  0.86438108  0.93704352    -0.06750
C1254       C  0.70791697  0.87722764  0.92578805    -0.17880
C1255       C  0.70447429  0.90755691  0.90414007     0.10450
C1256       C  0.73680231  0.92547436  0.89317919    -0.06680
C1257       C  0.77186802  0.91233723  0.90372108    -0.17910
C1258       C  0.77530547  0.88267194  0.92601516     0.10480
S1259       S  0.65805826  0.92308125  0.89284551    -0.32880
S1260       S  0.82105344  0.87270844  0.94246898    -0.32880
H1261       H  0.80830141  0.87280736  0.97629117     0.28490
H1262       H  0.66813757  0.93997246  0.86218841     0.28480
H1263       H  0.68285368  0.86394680  0.93438817     0.19080
H1264       H  0.79662019  0.92685821  0.89620817     0.19080
C1265       C  0.85429561  0.73529018  0.06699819    -0.06750
C1266       C  0.86024827  0.76776003  0.08487797    -0.17880
C1267       C  0.89317107  0.77239940  0.10257178     0.10450
C1268       C  0.92030348  0.74348623  0.10358491    -0.06680
C1269       C  0.91379480  0.71061290  0.08692190    -0.17910
C1270       C  0.88127528  0.70608911  0.06881692     0.10480
S1271       S  0.89998083  0.81663940  0.12121735    -0.32880
S1272       S  0.87646061  0.66230486  0.04867824    -0.32880
H1273       H  0.83754452  0.66189400  0.05258973     0.28490
H1274       H  0.93902924  0.81601886  0.11669501     0.28480
H1275       H  0.84034279  0.79066964  0.08322963     0.19080
H1276       H  0.93427343  0.68813820  0.08815696     0.19080
C1277       C  0.62765235  0.73259465  0.06998313    -0.06750
C1278       C  0.61641745  0.70257181  0.08947524    -0.17880
C1279       C  0.58244008  0.70392807  0.10766464     0.10450
C1280       C  0.55904130  0.73577869  0.10587378    -0.06680
C1281       C  0.57034085  0.76571335  0.08647945    -0.17910
C1282       C  0.60449026  0.76466076  0.06893933     0.10480
S1283       S  0.57021307  0.66400329  0.13194177    -0.32880
S1284       S  0.61555489  0.80402821  0.04357176    -0.32880
H1285       H  0.64872470  0.81031854  0.06064608     0.28490
H1286       H  0.53132783  0.66866663  0.12892680     0.28480
H1287       H  0.63393969  0.67781340  0.09012833     0.19080
H1288       H  0.55240681  0.79016103  0.08510051     0.19080
C1289       C  0.93566054  0.75911319  0.89556529    -0.06750
C1290       C  0.90406905  0.77850244  0.88349894    -0.17880
C1291       C  0.87019819  0.77935132  0.90169463     0.10450
C1292       C  0.86866074  0.76257138  0.93389498    -0.06680
C1293       C  0.90002537  0.74329483  0.94602432    -0.17910
C1294       C  0.93285990  0.73996800  0.92669560     0.10480
S1295       S  0.83077736  0.80222846  0.88191243    -0.32880
S1296       S  0.96857675  0.70842910  0.94211229    -0.32880
H1297       H  0.98154910  0.69706005  0.90989486     0.28490
H1298       H  0.80256514  0.79223696  0.90477973     0.28480
H1299       H  0.90569966  0.79304477  0.85959815     0.19080
H1300       H  0.89817540  0.72881448  0.96998892     0.19080
C1301       C  0.63405068  0.75423486  0.93718276    -0.06750
C1302       C  0.62883776  0.78639888  0.91801751    -0.17880
C1303       C  0.59838399  0.79093764  0.89665789     0.10450
C1304       C  0.57290875  0.76253024  0.89433634    -0.06680
C1305       C  0.57864031  0.73013571  0.91288560    -0.17910
C1306       C  0.60881984  0.72563244  0.93420546     0.10480
S1307       S  0.59292899  0.83386047  0.87425583    -0.32880
S1308       S  0.61085603  0.68479853  0.95995831    -0.32880
H1309       H  0.64563518  0.67245249  0.94665334     0.28490
H1310       H  0.55380279  0.83419208  0.87247844     0.28480
H1311       H  0.64806311  0.80845973  0.92039242     0.19080
H1312       H  0.55874807  0.70849384  0.91139016     0.19080
C1313       C  0.75485023  0.63925879  0.06698234    -0.06750
C1314       C  0.73385200  0.61012935  0.05574410    -0.17880
C1315       C  0.73054113  0.57785460  0.07463311     0.10450
C1316       C  0.75102810  0.57288975  0.10469942    -0.06680
C1317       C  0.77127224  0.60264267  0.11641695    -0.17910
C1318       C  0.77244453  0.63600370  0.09851615     0.10480
S1319       S  0.69802647  0.54525373  0.05961580    -0.32880
S1320       S  0.79770684  0.67255729  0.11695607    -0.32880
H1321       H  0.77857764  0.70156880  0.10070385     0.28490
H1322       H  0.68716962  0.53288652  0.09196131     0.28480
H1323       H  0.71914692  0.61281810  0.03214193     0.19080
H1324       H  0.78676825  0.59983419  0.13955711     0.19080
C1325       C  0.76906177  0.86586315  0.07043160    -0.06750
C1326       C  0.79443012  0.89365972  0.06318816    -0.17880
C1327       C  0.79284658  0.92717809  0.08045072     0.10450
C1328       C  0.76429761  0.93431040  0.10501252    -0.06680
C1329       C  0.73944369  0.90638441  0.11283617    -0.17830
C1330       C  0.74195461  0.87228212  0.09660154     0.10480
S1331       S  0.82887873  0.95904088  0.07048871    -0.32880
S1332       S  0.70992818  0.83837502  0.11119187    -0.32880
H1333       H  0.73769208  0.81022272  0.11286876     0.28490
H1334       H  0.83112051  0.97289153  0.10348180     0.28480
H1335       H  0.81575332  0.88950475  0.04364160     0.19080
H1336       H  0.71776222  0.91113514  0.13197566     0.19080
C1337       C  0.01099938  0.74970768  0.71387084    -0.06750
C1338       C  0.98457599  0.77371851  0.72953969    -0.17880
C1339       C  0.98290449  0.77785930  0.76458622     0.10450
C1340       C  0.00681169  0.75597870  0.78496497    -0.06680
C1341       C  0.03267431  0.73130713  0.76938300    -0.17910
C1342       C  0.03561045  0.72846420  0.73409937     0.10480
S1343       S  0.95141330  0.81329205  0.78127118    -0.32880
S1344       S  0.57265250  0.69981737  0.71545309    -0.32880
H1345       H  0.08703714  0.68563278  0.74580505     0.28490
H1346       H  0.97495337  0.82388361  0.80724549     0.28480
H1347       H  0.96584981  0.79039151  0.71420877     0.19080
H1348       H  0.55108276  0.71468920  0.78499433     0.19080
C1349       C  0.74561788  0.99525877  0.71354609    -0.06750
C1350       C  0.72331357  0.52163606  0.73110149    -0.17880
C1351       C  0.72158935  0.52266791  0.76659854     0.10450
C1352       C  0.74436703  0.99794678  0.78547508    -0.06680
C1353       C  0.76736268  0.97213252  0.76787053    -0.17910
C1354       C  0.76734137  0.96972170  0.73251205     0.10480
S1355       S  0.68783098  0.55368326  0.78707604    -0.32880
S1356       S  0.79339953  0.93160229  0.71368542    -0.32880
H1357       H  0.76766995  0.92568149  0.68806518     0.28490
H1358       H  0.67393513  0.57056196  0.75767321     0.28480
H1359       H  0.70655388  0.54118299  0.71682494     0.19080
H1360       H  0.78460288  0.95268067  0.78186420     0.19080
C1361       C  0.75282850  0.99730850  0.28655739    -0.06750
C1362       C  0.72540312  0.51907362  0.27026588    -0.17880
C1363       C  0.72353540  0.52057878  0.23486732     0.10450
C1364       C  0.75091928  0.00143467  0.21480004    -0.06680
C1365       C  0.77815622  0.97955004  0.23118104    -0.17910
C1366       C  0.77869866  0.97637834  0.26644528     0.10480
S1367       S  0.68439620  0.54581426  0.21718063    -0.32880
S1368       S  0.81187122  0.94355067  0.28390002    -0.32880
H1369       H  0.78874238  0.93310726  0.31119392     0.28490
H1370       H  0.68055075  0.52238961  0.18941622     0.28480
H1371       H  0.70492744  0.53475325  0.28525366     0.19080
H1372       H  0.79898187  0.96418307  0.21631541     0.19080
C1373       C  0.98223135  0.75279401  0.28480087    -0.06750
C1374       C  0.50766779  0.77442288  0.26692794    -0.17880
C1375       C  0.50869103  0.77531920  0.23160988     0.10450
C1376       C  0.98516783  0.75243866  0.21345601    -0.06680
C1377       C  0.95941532  0.73122308  0.23138358    -0.17910
C1378       C  0.95685802  0.73204763  0.26660477     0.10480
S1379       S  0.53943888  0.80737361  0.21155679    -0.32880
S1380       S  0.91949571  0.70736717  0.28647859    -0.32880
H1381       H  0.91321769  0.73238477  0.31311553     0.28490
H1382       H  0.51646468  0.81488138  0.18379831     0.28480
H1383       H  0.52676904  0.79101896  0.28061651     0.19080
H1384       H  0.94083760  0.71396107  0.21781899     0.19080
C1385       C  0.01846974  0.81818878  0.60455637    -0.06750
C1386       C  0.99163924  0.84646388  0.61071607    -0.17880
C1387       C  0.99105515  0.87856947  0.59114476     0.10450
C1388       C  0.01662118  0.88169011  0.56362037    -0.06680
C1389       C  0.54419883  0.85374727  0.55858023    -0.17910
C1390       C  0.54610278  0.82288762  0.57919292     0.10480
S1391       S  0.95805981  0.91455675  0.60344079    -0.32880
S1392       S  0.58506445  0.79095216  0.57209434    -0.32880
H1393       H  0.58792712  0.77983913  0.60605797     0.28490
H1394       H  0.98379448  0.94259704  0.59943418     0.28480
H1395       H  0.97090917  0.84343161  0.63078635     0.19080
H1396       H  0.56485324  0.85576759  0.53832074     0.19080
C1397       C  0.01503418  0.62026922  0.56203758    -0.06750
C1398       C  0.54721078  0.62795220  0.57986151    -0.17880
C1399       C  0.54813600  0.65912238  0.60043221     0.10450
C1400       C  0.01617190  0.68284289  0.60314826    -0.06680
C1401       C  0.98435123  0.67529303  0.58499454    -0.17910
C1402       C  0.98332150  0.64422216  0.56487297     0.10480
S1403       S  0.59084516  0.66727040  0.62209466    -0.32880
S1404       S  0.94090675  0.63701840  0.54277359    -0.32880
H1405       H  0.93404350  0.60464419  0.56081377     0.28490
H1406       H  0.58692190  0.70569612  0.62278969     0.28480
H1407       H  0.57152256  0.60963792  0.57786089     0.19080
H1408       H  0.96002129  0.69371225  0.58668445     0.19080
C1409       C  0.98288327  0.88317308  0.43496175    -0.06750
C1410       C  0.95685422  0.85587932  0.44133720    -0.17880
C1411       C  0.95561990  0.82482570  0.42129214     0.10450
C1412       C  0.98226268  0.81942554  0.39489689    -0.06680
C1413       C  0.50765678  0.84700352  0.38758754    -0.17910
C1414       C  0.50771375  0.87918141  0.40682303     0.10480
S1415       S  0.91854812  0.79373234  0.43028476    -0.32880
S1416       S  0.53910115  0.91412209  0.39334098    -0.32880
H1417       H  0.51316691  0.94335493  0.39896914     0.28490
H1418       H  0.91320343  0.78453518  0.39628107     0.28480
H1419       H  0.93696390  0.85856826  0.46226107     0.19080
H1420       H  0.52760591  0.84340539  0.36680303     0.19080
C1421       C  0.98475442  0.62036490  0.43447512    -0.06750
C1422       C  0.95116050  0.63436474  0.42145404    -0.17880
C1423       C  0.95051503  0.66588968  0.40116926     0.10450
C1424       C  0.98421169  0.68379949  0.39414029    -0.06680
C1425       C  0.51771467  0.66974229  0.40715882    -0.17910
C1426       C  0.51846176  0.63807741  0.42708889     0.10480
S1427       S  0.90593097  0.68145933  0.38507669    -0.32880
S1428       S  0.56242212  0.62147361  0.44407893    -0.32880
H1429       H  0.58500698  0.64812060  0.42917663     0.28490
H1430       H  0.91423827  0.71838950  0.38022566     0.28480
H1431       H  0.92541414  0.62056957  0.42698126     0.19080
H1432       H  0.54324114  0.68395362  0.40187116     0.19080
C1433       C  0.60909661  0.00456789  0.56569796    -0.06750
C1434       C  0.62789140  0.53707640  0.57162344    -0.17880
C1435       C  0.65972056  0.53727358  0.59178885     0.10450
C1436       C  0.67361217  0.00416404  0.60615616    -0.06680
C1437       C  0.65453471  0.97197199  0.60103211    -0.17910
C1438       C  0.62307324  0.97165972  0.58071940     0.10480
S1439       S  0.68183195  0.58040017  0.59749626    -0.32880
S1440       S  0.60545111  0.92748565  0.57159955    -0.32880
H1441       H  0.61059382  0.93236329  0.53653893     0.28490
H1442       H  0.69859541  0.57156601  0.62840820     0.28480
H1443       H  0.61805067  0.56244323  0.56006832     0.19080
H1444       H  0.66555802  0.94638609  0.61140177     0.19080
C1445       C  0.88022403  0.98937404  0.56231447    -0.06750
C1446       C  0.86800125  0.95752551  0.57841683    -0.17880
C1447       C  0.83454795  0.95791783  0.59759719     0.10450
C1448       C  0.81257527  0.99077089  0.60038719    -0.06680
C1449       C  0.82415629  0.52215443  0.58326730    -0.17910
C1450       C  0.85763859  0.52183668  0.56432423     0.10480
S1451       S  0.82144411  0.91567819  0.61767305    -0.32880
S1452       S  0.87041486  0.56269566  0.54162816    -0.32880
H1453       H  0.83920137  0.58482923  0.55146727     0.28490
H1454       H  0.78265464  0.92275641  0.61739390     0.28480
H1455       H  0.88460001  0.93231449  0.57617457     0.19080
H1456       H  0.80693094  0.54703301  0.58504575     0.19080
C1457       C  0.61676223  0.98285880  0.43360630    -0.06750
C1458       C  0.62525960  0.51523440  0.41600613    -0.17880
C1459       C  0.65952242  0.51914442  0.39913310     0.10450
C1460       C  0.68607063  0.98975455  0.39870000    -0.06680
C1461       C  0.67788689  0.95724394  0.41603655    -0.17910
C1462       C  0.64352451  0.95338159  0.43330674     0.10480
S1463       S  0.66805823  0.56278886  0.37932897    -0.32880
S1464       S  0.63535701  0.90994577  0.45349511    -0.32880
H1465       H  0.59713480  0.90968923  0.44631053     0.28490
H1466       H  0.70669190  0.56225241  0.38486908     0.28480
H1467       H  0.60560065  0.53844592  0.41639793     0.19080
H1468       H  0.69809510  0.93449876  0.41553360     0.19080
C1469       C  0.82412462  0.00788545  0.39401316    -0.06750
C1470       C  0.85366683  0.98242126  0.38812910    -0.17880
C1471       C  0.88714422  0.98394767  0.40572017     0.10450
C1472       C  0.89132564  0.01122387  0.43084305    -0.06680
C1473       C  0.86211007  0.53774163  0.43535478    -0.17910
C1474       C  0.82906534  0.53663308  0.41708108     0.10480
S1475       S  0.92237395  0.94932325  0.39523333    -0.32880
S1476       S  0.79432616  0.57281789  0.42431573    -0.32880
H1477       H  0.78010591  0.57272610  0.39145446     0.28490
H1478       H  0.95021408  0.97504103  0.38962300     0.28480
H1479       H  0.85033153  0.96060918  0.37002340     0.19080
H1480       H  0.86464064  0.55939870  0.45373003     0.19080
loop_ 
_geom_bond_atom_site_label_1 
_geom_bond_atom_site_label_2 
_geom_bond_distance 
_geom_bond_site_symmetry_2 
_ccdc_geom_bond_type 
O1            C9   1.265       .  A
O1          Co21   1.977       .  S
O2           C10   1.251   1_545  A
O2          Co22   1.967       .  S
O3           C11   1.270       .  A
O3          Co23   2.026       .  S
O4           C12   1.296   1_455  A
O4          Co24   2.103       .  S
O5          C751   1.251   1_455  A
O5          Co22   1.945       .  S
O6          C752   1.262       .  A
O6          Co21   1.873       .  S
O7          C380   1.258       .  A
O7          Co24   2.015       .  S
O8          C379   1.277       .  A
O8          Co23   2.029       .  S
C9          O378   1.277       .  A
C9          C362   1.500       .  S
C10         O377   1.258       .  A
C10         C717   1.488       .  S
C11         O745   1.251       .  A
C11         C311   1.466       .  S
C12         O746   1.262       .  A
C12        C1039   1.480       .  S
O13         C766   1.297       .  A
O13         Co21   2.103       .  S
O14         C767   1.273       .  A
O14         Co22   2.033       .  S
O15         C398   1.253   1_545  A
O15         Co23   1.971       .  S
O16         C399   1.270       .  A
O16         Co24   1.983       .  S
O17          C29   1.279       .  A
O17         Co22   2.032       .  S
O18          C28   1.259       .  A
O18         Co21   2.014       .  S
O19          C26   1.262       .  A
O19         Co24   1.870       .  S
O20          C27   1.256       .  A
O20         Co23   1.951       .  S
Co21         O25   2.011       .  S
Co22       O1135   2.030   1_455  S
Co23        O395   2.040       .  S
Co24        O765   2.016   1_455  S
O25       Co1132   2.030       .  S
O25        Co393   2.040       .  S
O25        Co764   2.016       .  S
C26         O753   1.297   1_455  A
C26        C1018   1.482       .  S
C27         O754   1.273       .  A
C27         C287   1.468       .  S
C28         O385   1.253       .  A
C28         C335   1.479       .  S
C29         O386   1.270   1_545  A
C29         C693   1.493       .  S
C30         C314   1.467       .  S
C30          C31   1.395       .  A
C30          C35   1.397       .  A
C31          C32   1.400       .  A
C31          H36   1.085       .  S
C32         C302   1.476       .  S
C32          C33   1.401       .  A
C33          C34   1.405       .  A
C33          H37   1.084       .  S
C34         C263   1.479       .  S
C34          C35   1.405       .  A
C35          H38   1.083       .  S
C39         C359   1.487       .  S
C39          C40   1.406       .  A
C39          C44   1.406       .  A
C40          C41   1.408       .  A
C40          H45   1.083       .  S
C41         C251   1.493       .  S
C41          C42   1.406       .  A
C42          C43   1.404       .  A
C42          H46   1.084       .  S
C43         C350   1.481       .  S
C43          C44   1.403       .  A
C44         H417   1.084       .  S
H47         C414   1.084       .  S
C48         C338   1.481       .  S
C48          C49   1.403       .  A
C48          C53   1.404       .  A
C49          C50   1.402       .  A
C49         H424   1.085       .  S
C50         C326   1.481       .  S
C50          C51   1.403       .  A
C51          C52   1.410       .  A
C51          H55   1.083       .  S
C52         C239   1.495       .  S
C52          C53   1.409       .  A
C53          H56   1.083       .  S
H54         C419   1.085       .  S
C57         C290   1.469       .  S
C57          C58   1.395       .  A
C57          C62   1.400       .  A
C58          C59   1.398       .  A
C58          H63   1.085       .  S
C59         C275   1.475       .  S
C59          C60   1.399       .  A
C60          C61   1.406       .  A
C60          H64   1.084       .  S
C61         C227   1.482       .  S
C61          C62   1.406       .  A
C62          H65   1.083       .  S
C66         C218   1.494       .  S
C66          C67   1.402       .  A
C66          C71   1.407       .  A
C67          C68   1.405       .  A
C67          H72   1.084       .  S
C68         C254   1.495       .  S
C68         C439   1.410       .  A
C69          C70   1.411       .  A
C69         C438   1.410       .  A
C69          H73   1.082       .  S
C70         C206   1.502       .  S
C70         C441   1.412       .  A
C71         C440   1.412       .  A
C71          H74   1.082       .  S
O75          C83   1.271       .  A
O75         Co95   1.895       .  S
O76          C84   1.259       .  A
O76         Co96   1.987       .  S
O77          C85   1.295       .  A
O77         Co97   2.065       .  S
O78          C86   1.266       .  A
O78         Co98   2.006   1_554  S
O79          C85   1.271       .  A
O79         Co96   1.892       .  S
O80          C86   1.261       .  A
O80         Co95   1.979       .  S
O81          C84   1.269       .  A
O81         Co98   2.026   1_554  S
O82          C83   1.299       .  A
O82         Co97   2.080       .  S
C83         C215   1.498       .  S
C84         C203   1.482       .  S
C85         C167   1.469       .  S
C86         C155   1.480       .  S
O87         C100   1.269       .  A
O87         Co95   2.007   1_556  S
O88         C101   1.241       .  A
O88         Co96   1.949   1_556  S
O89         C102   1.252       .  A
O89         Co97   1.993   1_556  S
O90         C103   1.261       .  A
O90         Co98   1.975       .  S
O91         C103   1.271       .  A
O91         Co96   2.021   1_556  S
O92         C102   1.245       .  A
O92         Co95   1.968   1_556  S
O93         C100   1.260       .  A
O93         Co98   1.969       .  S
O94         C101   1.251       .  A
O94         Co97   1.989   1_556  S
Co95         O99   1.928   1_554  S
Co96         O99   1.937   1_554  S
Co97         O99   2.245   1_554  S
Co98         O99   2.076       .  S
C100        C182   1.457       .  S
C101        C191   1.465       .  S
C102        C143   1.483       .  S
C103        C134   1.471       .  S
C104        C170   1.470       .  S
C104        C105   1.399       .  A
C104        C849   1.400   1_455  A
C105        C846   1.404   1_455  A
C105        H110   1.083       .  S
C106        C266   1.481       .  S
C106        C107   1.405       .  A
C106        C845   1.404       .  A
C107        C108   1.400       .  A
C107        H111   1.083       .  S
C108        C158   1.476       .  S
C108        C109   1.401       .  A
C109        C844   1.400       .  A
C109        H112   1.085       .  S
C113        C146   1.474       .  S
C113        C114   1.400       .  A
C113        C118   1.398       .  A
C114        C115   1.408       .  A
C114        H119   1.083       .  S
C115        C242   1.497       .  S
C115        C486   1.411       .  A
C116        C117   1.411       .  A
C116        C485   1.411   1_545  A
C116        H120   1.083       .  S
C117        C131   1.496       .  S
C117        C488   1.403   1_545  A
C118        C487   1.403       .  A
C118        H121   1.083       .  S
C122        C194   1.466       .  S
C122        C123   1.397       .  A
C122        C867   1.394       .  A
C123        C864   1.405       .  A
C123        H128   1.083       .  S
C124        C230   1.481       .  S
C124        C125   1.406       .  A
C124        C863   1.405       .  A
C125        C126   1.404       .  A
C125        H129   1.083       .  S
C126        C179   1.481       .  S
C126        C127   1.398       .  A
C127        C862   1.394       .  A
C127        H130   1.084       .  S
C131        C132   1.408       .  A
C131        C136   1.419       .  A
C132        C133   1.402       .  A
C132        H141   1.084       .  S
C133        C134   1.413       .  A
C133        S137   1.808       .  S
C134        C135   1.400       .  A
C135        C136   1.402       .  A
C135        H142   1.084       .  S
C136        S138   1.810       .  S
S137        H140   1.399       .  S
S138        H139   1.407       .  S
C143        C144   1.407       .  A
C143        C148   1.417       .  A
C144        C145   1.401       .  A
C144        H153   1.083       .  S
C145        C146   1.410       .  A
C145        S149   1.803       .  S
C146        C147   1.401       .  A
C147        C148   1.398       .  A
C147        H154   1.085       .  S
C148        S150   1.802       .  S
S149        H152   1.404       .  S
S150        H151   1.405       .  S
C155        C156   1.408       .  A
C155        C160   1.417       .  A
C156        C157   1.400       .  A
C156        H165   1.083       .  S
C157        C158   1.411       .  A
C157        S161   1.804       .  S
C158        C159   1.400       .  A
C159        C160   1.396       .  A
C159        H166   1.083       .  S
C160        S162   1.804       .  S
S161        H164   1.406       .  S
S162        H163   1.401       .  S
C167        C168   1.403       .  A
C167        C172   1.412       .  A
C168        C169   1.401       .  A
C168        H177   1.083       .  S
C169        C170   1.412       .  A
C169        S173   1.804       .  S
C170        C171   1.399       .  A
C171        C172   1.394       .  A
C171        H178   1.084       .  S
C172        S174   1.800       .  S
S173        H176   1.406       .  S
S174        H175   1.406       .  S
C179        C180   1.405       .  A
C179        C184   1.417       .  A
C180        C181   1.398       .  A
C180        H189   1.084       .  S
C181        C182   1.412       .  A
C181        S185   1.807       .  S
C182        C183   1.398       .  A
C183        C184   1.392       .  A
C183        H190   1.085       .  S
C184        S186   1.806       .  S
S185        H188   1.399       .  S
S186        H187   1.407       .  S
C191        C192   1.404       .  A
C191        C196   1.411       .  A
C192        C193   1.399       .  A
C192        H201   1.083       .  S
C193        C194   1.409       .  A
C193        S197   1.804       .  S
C194        C195   1.401       .  A
C195        C196   1.390       .  A
C195        H202   1.085       .  S
C196        S198   1.802       .  S
S197        H200   1.405       .  S
S198        H199   1.403       .  S
C203        C204   1.403       .  A
C203        C208   1.412       .  A
C204        C205   1.400       .  A
C204        H213   1.084       .  S
C205        C206   1.419       .  A
C205        S209   1.805       .  S
C206        C207   1.412       .  A
C207        C208   1.408       .  A
C207        H214   1.083       .  S
C208        S210   1.803       .  S
S209        H212   1.407       .  S
S210        H211   1.403       .  S
C215        C216   1.410       .  A
C215        C220   1.419       .  A
C216        C217   1.403       .  A
C216        H225   1.083       .  S
C217        C218   1.414       .  A
C217        S221   1.804       .  S
C218        C219   1.406       .  A
C219        C220   1.402       .  A
C219        H226   1.084       .  S
C220        S222   1.802       .  S
S221        H224   1.406       .  S
S222        H223   1.408       .  S
C227        C228   1.404       .  A
C227        C232   1.413       .  A
C228        C229   1.395       .  A
C228        H237   1.084       .  S
C229        C230   1.414       .  A
C229        S233   1.805       .  S
C230        C231   1.405       .  A
C231        C232   1.402       .  A
C231        H978   1.082       .  S
C232        S974   1.808       .  S
S233        H236   1.407       .  S
S234        C972   1.808       .  S
S234        H975   1.406       .  S
H235        S974   1.406       .  S
H238        C971   1.082       .  S
C239        C244   1.417       .  A
C239        C610   1.406       .  A
C240        C241   1.405       .  A
C240        C609   1.406   1_545  A
C240        H249   1.082       .  S
C241        C612   1.417   1_545  A
C241        S245   1.809       .  S
C242        C243   1.407       .  A
C242        C611   1.417       .  A
C243        C244   1.402       .  A
C243        H250   1.083       .  S
C244        S246   1.804       .  S
S245        H248   1.406       .  S
S246        H247   1.407       .  S
C251        C256   1.415       .  A
C251        C622   1.407       .  A
C252        C253   1.404       .  A
C252        C621   1.407   1_545  A
C252        H261   1.083       .  S
C253        C624   1.416       .  A
C253        S257   1.803       .  S
C254        C255   1.407       .  A
C254        C623   1.416       .  A
C255        C256   1.400       .  A
C255        H262   1.083       .  S
C256        S258   1.804       .  S
S257        H260   1.407       .  S
S258        H259   1.407       .  S
C263        C268   1.413       .  A
C263       C1004   1.404       .  A
C264        C265   1.397       .  A
C264       C1003   1.404   1_455  A
C264        H273   1.084       .  S
C265       C1006   1.415   1_455  A
C265        S269   1.805       .  S
C266        C267   1.404       .  A
C266       C1005   1.415       .  A
C267        C268   1.395       .  A
C267        H274   1.084       .  S
C268        S270   1.804       .  S
S269        H272   1.407       .  S
S270        H271   1.407       .  S
C275        C276   1.405       .  A
C275       C1020   1.409       .  A
C276        C277   1.402       .  A
C276        H285   1.084       .  S
C277        C278   1.415       .  A
C277        S281   1.799       .  S
C278        C766   1.482       .  S
C278       C1019   1.407       .  A
C279        C280   1.389       .  A
C279       C1018   1.407       .  A
C279        H286   1.084       .  S
C280       C1015   1.409       .  A
C280        S282   1.806       .  S
S281        H284   1.407       .  S
S282        H283   1.407       .  S
C287        C292   1.413       .  A
C287       C1028   1.401       .  A
C288        C289   1.403       .  A
C288       C1027   1.401       .  A
C288        H297   1.082       .  S
C289       C1030   1.414       .  A
C289        S293   1.804       .  S
C290        C291   1.396       .  A
C290       C1029   1.414       .  A
C291        C292   1.390       .  A
C291        H298   1.084       .  S
C292        S294   1.797       .  S
S293        H296   1.405       .  S
S294        H295   1.404       .  S
C299        C752   1.480       .  S
C299        C300   1.407       .  A
C299       C1044   1.415       .  A
C300        C301   1.389       .  A
C300        H309   1.084       .  S
C301        C302   1.410       .  A
C301        S305   1.806       .  S
C302       C1043   1.405       .  A
C303        C304   1.402       .  A
C303       C1042   1.405   1_455  A
C303        H310   1.084       .  S
C304       C1039   1.415   1_455  A
C304        S306   1.801       .  S
S305        H308   1.406       .  S
S306        H307   1.406       .  S
C311        C312   1.399       .  A
C311       C1056   1.414       .  A
C312        C313   1.400       .  A
C312        H321   1.084       .  S
C313        C314   1.415       .  A
C313        S317   1.805       .  S
C314       C1055   1.397       .  A
C315        C316   1.396       .  A
C315       C1054   1.397   1_455  A
C315        H322   1.083       .  S
C316       C1051   1.414   1_455  A
C316        S318   1.810       .  S
S317        H320   1.402       .  S
S318        H319   1.407       .  S
C323        C399   1.493       .  S
C323        C328   1.419       .  A
C323        C694   1.407       .  A
C324        C325   1.406       .  A
C324        C693   1.407       .  A
C324        H333   1.082       .  S
C325        C696   1.413       .  A
C325        S329   1.804       .  S
C326        C327   1.397       .  A
C326        C695   1.413       .  A
C327        C328   1.399       .  A
C327        H334   1.084       .  S
C328        S330   1.793       .  S
S329        H332   1.405       .  S
S330        H331   1.407       .  S
C335        C336   1.402       .  A
C335        C710   1.413       .  A
C336        C337   1.405       .  A
C336        H345   1.081       .  S
C337        C338   1.415       .  A
C337        S341   1.804       .  S
C338        C709   1.399       .  A
C339        C340   1.401       .  A
C339        C708   1.399   1_545  A
C339        H346   1.082       .  S
C340        C705   1.413   1_545  A
C340        S342   1.805       .  S
S341        H344   1.405       .  S
S342        H343   1.406       .  S
C347        C380   1.488       .  S
C347        C352   1.416       .  A
C347        C718   1.408       .  A
C348        C349   1.397       .  A
C348        C717   1.408   1_545  A
C348        H357   1.083       .  S
C349        C720   1.409   1_545  A
C349        S353   1.805       .  S
C350        C351   1.405       .  A
C350        C719   1.409       .  A
C351        C352   1.407       .  A
C351        H358   1.083       .  S
C352        S354   1.803       .  S
S353        H356   1.406       .  S
S354        H355   1.405       .  S
C359        C360   1.401       .  A
C359        C734   1.412       .  A
C360        C361   1.402       .  A
C360        H369   1.084       .  S
C361        C362   1.423       .  A
C361        S365   1.799       .  S
C362        C733   1.410       .  A
C363        C364   1.402       .  A
C363        C732   1.410       .  A
C363        H370   1.084       .  S
C364        C729   1.412       .  A
C364        S366   1.803       .  S
S365        H368   1.407       .  S
S366        H367   1.406       .  S
O371        C379   1.265   1_565  A
O371       Co391   1.977       .  S
O372        C380   1.251       .  A
O372       Co392   1.967       .  S
O373        C381   1.270       .  A
O373       Co393   2.026       .  S
O374        C382   1.296   1_455  A
O374       Co394   2.103       .  S
O375       C1121   1.251   1_455  A
O375       Co392   1.945       .  S
O376       C1122   1.262       .  A
O376       Co391   1.873       .  S
O377       Co394   2.015       .  S
O378       Co393   2.029       .  S
C379        C732   1.500       .  S
C381       O1115   1.251       .  A
C381        C681   1.466       .  S
C382       O1116   1.262       .  A
C382       C1409   1.480       .  S
O383       C1136   1.297       .  A
O383       Co391   2.103       .  S
O384       C1137   1.273       .  A
O384       Co392   2.033       .  S
O385       Co393   1.971       .  S
O386       Co394   1.983       .  S
O387        C399   1.279       .  A
O387       Co392   2.032       .  S
O388        C398   1.259       .  A
O388       Co391   2.014       .  S
O389        C396   1.262       .  A
O389       Co394   1.870       .  S
O390        C397   1.256       .  A
O390       Co393   1.951       .  S
Co391       O395   2.011   1_565  S
Co392       O765   2.030   1_455  S
Co394      O1135   2.016   1_465  S
O395       Co762   2.030       .  S
O395      Co1134   2.016   1_545  S
C396       O1123   1.297   1_455  A
C396       C1388   1.482       .  S
C397       O1124   1.273       .  A
C397        C657   1.468       .  S
C398        C705   1.479       .  S
C400        C684   1.467       .  S
C400        C401   1.395       .  A
C400        C405   1.397       .  A
C401        C402   1.400       .  A
C401        H406   1.085       .  S
C402        C672   1.476       .  S
C402        C403   1.401       .  A
C403        C404   1.405       .  A
C403        H407   1.084       .  S
C404        C633   1.479       .  S
C404        C405   1.405       .  A
C405        H408   1.083       .  S
C409        C729   1.487       .  S
C409        C410   1.406       .  A
C409        C414   1.406   1_545  A
C410        C411   1.408   1_545  A
C410        H415   1.083       .  S
C411        C621   1.493       .  S
C411        C412   1.406       .  A
C412        C413   1.404       .  A
C412        H416   1.084       .  S
C413        C720   1.481       .  S
C413        C414   1.403       .  A
C418        C708   1.481       .  S
C418        C419   1.403       .  A
C418        C423   1.404       .  A
C419        C420   1.402   1_565  A
C420        C696   1.481       .  S
C420        C421   1.403   1_545  A
C421        C422   1.410       .  A
C421        H425   1.083   1_565  S
C422        C609   1.495       .  S
C422        C423   1.409       .  A
C423        H426   1.083       .  S
C427        C660   1.469       .  S
C427        C428   1.395       .  A
C427        C432   1.400       .  A
C428        C429   1.398       .  A
C428        H433   1.085       .  S
C429        C645   1.475       .  S
C429        C430   1.399       .  A
C430        C431   1.406       .  A
C430        H434   1.084       .  S
C431        C597   1.482       .  S
C431        C432   1.406       .  A
C432        H435   1.083       .  S
C436        C588   1.494       .  S
C436        C437   1.402       .  A
C436        C441   1.407   1_565  A
C437        C438   1.405   1_565  A
C437        H442   1.084       .  S
C438        C624   1.495       .  S
C439        C440   1.411       .  A
C439        H443   1.082       .  S
C440        C576   1.502       .  S
C441        H444   1.082       .  S
O445        C453   1.271       .  A
O445       Co465   1.895       .  S
O446        C454   1.259       .  A
O446       Co466   1.987       .  S
O447        C455   1.295       .  A
O447       Co467   2.065       .  S
O448        C456   1.266       .  A
O448       Co468   2.006   1_554  S
O449        C455   1.271       .  A
O449       Co466   1.892       .  S
O450        C456   1.261       .  A
O450       Co465   1.979       .  S
O451        C454   1.269       .  A
O451       Co468   2.026   1_554  S
O452        C453   1.299       .  A
O452       Co467   2.080       .  S
C453        C585   1.498       .  S
C454        C573   1.482       .  S
C455        C537   1.469       .  S
C456        C525   1.480       .  S
O457        C470   1.269       .  A
O457       Co465   2.007   1_556  S
O458        C471   1.241       .  A
O458       Co466   1.949   1_556  S
O459        C472   1.252       .  A
O459       Co467   1.993   1_556  S
O460        C473   1.261       .  A
O460       Co468   1.975       .  S
O461        C473   1.271       .  A
O461       Co466   2.021   1_556  S
O462        C472   1.245       .  A
O462       Co465   1.968   1_556  S
O463        C470   1.260       .  A
O463       Co468   1.969       .  S
O464        C471   1.251       .  A
O464       Co467   1.989   1_556  S
Co465       O469   1.928   1_554  S
Co466       O469   1.937   1_554  S
Co467       O469   2.245   1_554  S
Co468       O469   2.076       .  S
C470        C552   1.457       .  S
C471        C561   1.465       .  S
C472        C513   1.483       .  S
C473        C504   1.471       .  S
C474        C540   1.470       .  S
C474        C475   1.399       .  A
C474       C1219   1.400   1_455  A
C475       C1216   1.404   1_455  A
C475        H480   1.083       .  S
C476        C636   1.481       .  S
C476       C1215   1.404       .  A
C476        C477   1.405       .  A
C477        C478   1.400       .  A
C477        H481   1.083       .  S
C478        C528   1.476       .  S
C478        C479   1.401       .  A
C479       C1214   1.400       .  A
C479        H482   1.085       .  S
C483        C516   1.474       .  S
C483        C484   1.400       .  A
C483        C488   1.398       .  A
C484        C485   1.408       .  A
C484        H489   1.083       .  S
C485        C612   1.497       .  S
C486        C487   1.411       .  A
C486        H490   1.083       .  S
C487        C501   1.496       .  S
C488        H491   1.083       .  S
C492        C564   1.466       .  S
C492        C493   1.397       .  A
C492       C1237   1.394       .  A
C493       C1234   1.405       .  A
C493        H498   1.083       .  S
C494        C600   1.481       .  S
C494       C1233   1.405       .  A
C494        C495   1.406       .  A
C495        C496   1.404       .  A
C495        H499   1.083       .  S
C496        C549   1.481       .  S
C496        C497   1.398       .  A
C497       C1232   1.394       .  A
C497        H500   1.084       .  S
C501        C502   1.408       .  A
C501        C506   1.419       .  A
C502        C503   1.402       .  A
C502        H511   1.084       .  S
C503        C504   1.413       .  A
C503        S507   1.808       .  S
C504        C505   1.400       .  A
C505        C506   1.402       .  A
C505        H512   1.084       .  S
C506        S508   1.810       .  S
S507        H510   1.399       .  S
S508        H509   1.407       .  S
C513        C514   1.407       .  A
C513        C518   1.417       .  A
C514        C515   1.401       .  A
C514        H523   1.083       .  S
C515        C516   1.410       .  A
C515        S519   1.803       .  S
C516        C517   1.401       .  A
C517        C518   1.398       .  A
C517        H524   1.085       .  S
C518        S520   1.802       .  S
S519        H522   1.404       .  S
S520        H521   1.405       .  S
C525        C526   1.408       .  A
C525        C530   1.417       .  A
C526        C527   1.400       .  A
C526        H535   1.083       .  S
C527        C528   1.411       .  A
C527        S531   1.804       .  S
C528        C529   1.400       .  A
C529        C530   1.396       .  A
C529        H536   1.083       .  S
C530        S532   1.804       .  S
S531        H534   1.406       .  S
S532        H533   1.401       .  S
C537        C538   1.403       .  A
C537        C542   1.412       .  A
C538        C539   1.401       .  A
C538        H547   1.083       .  S
C539        C540   1.412       .  A
C539        S543   1.804       .  S
C540        C541   1.399       .  A
C541        C542   1.394       .  A
C541        H548   1.084       .  S
C542        S544   1.800       .  S
S543        H546   1.406       .  S
S544        H545   1.406       .  S
C549        C550   1.405       .  A
C549        C554   1.417       .  A
C550        C551   1.398       .  A
C550        H559   1.084       .  S
C551        C552   1.412       .  A
C551        S555   1.807       .  S
C552        C553   1.398       .  A
C553        C554   1.392       .  A
C553        H560   1.085       .  S
C554        S556   1.806       .  S
S555        H558   1.399       .  S
S556        H557   1.407       .  S
C561        C562   1.404       .  A
C561        C566   1.411       .  A
C562        C563   1.399       .  A
C562        H571   1.083       .  S
C563        C564   1.409       .  A
C563        S567   1.804       .  S
C564        C565   1.401       .  A
C565        C566   1.390       .  A
C565        H572   1.085       .  S
C566        S568   1.802       .  S
S567        H570   1.405       .  S
S568        H569   1.403       .  S
C573        C574   1.403       .  A
C573        C578   1.412       .  A
C574        C575   1.400       .  A
C574        H583   1.084       .  S
C575        C576   1.419       .  A
C575        S579   1.805       .  S
C576        C577   1.412       .  A
C577        C578   1.408       .  A
C577        H584   1.083       .  S
C578        S580   1.803       .  S
S579        H582   1.407       .  S
S580        H581   1.403       .  S
C585        C586   1.410       .  A
C585        C590   1.419       .  A
C586        C587   1.403       .  A
C586        H595   1.083       .  S
C587        C588   1.414       .  A
C587        S591   1.804       .  S
C588        C589   1.406       .  A
C589        C590   1.402       .  A
C589        H596   1.084       .  S
C590        S592   1.802       .  S
S591        H594   1.406       .  S
S592        H593   1.408       .  S
C597        C598   1.404       .  A
C597        C602   1.413       .  A
C598        C599   1.395       .  A
C598        H607   1.084       .  S
C599        C600   1.414       .  A
C599        S603   1.805       .  S
C600        C601   1.405       .  A
C601        C602   1.402       .  A
C601       H1348   1.082       .  S
C602       S1344   1.808       .  S
S603        H606   1.407       .  S
S604       C1342   1.808       .  S
S604       H1345   1.406       .  S
H605       S1344   1.406       .  S
H608       C1341   1.082       .  S
C609        C614   1.417       .  A
C610        C611   1.405       .  A
C610        H619   1.082       .  S
C611        S615   1.809       .  S
C612        C613   1.407       .  A
C613        C614   1.402       .  A
C613        H620   1.083       .  S
C614        S616   1.804       .  S
S615        H618   1.406       .  S
S616        H617   1.407       .  S
C621        C626   1.415       .  A
C622        C623   1.404       .  A
C622        H631   1.083       .  S
C623        S627   1.803       .  S
C624        C625   1.407   1_545  A
C625        C626   1.400       .  A
C625        H632   1.083       .  S
C626        S628   1.804       .  S
S627        H630   1.407       .  S
S628        H629   1.407       .  S
C633       C1374   1.404       .  A
C633        C638   1.413       .  A
C634       C1373   1.404   1_455  A
C634        C635   1.397       .  A
C634        H643   1.084       .  S
C635       C1376   1.415   1_455  A
C635        S639   1.805       .  S
C636       C1375   1.415       .  A
C636        C637   1.404       .  A
C637        C638   1.395       .  A
C637        H644   1.084       .  S
C638        S640   1.804       .  S
S639        H642   1.407       .  S
S640        H641   1.407       .  S
C645        C646   1.405       .  A
C645       C1390   1.409       .  A
C646        C647   1.402       .  A
C646        H655   1.084       .  S
C647        C648   1.415       .  A
C647        S651   1.799       .  S
C648       C1136   1.482       .  S
C648       C1389   1.407       .  A
C649       C1388   1.407       .  A
C649        C650   1.389       .  A
C649        H656   1.084       .  S
C650       C1385   1.409       .  A
C650        S652   1.806       .  S
S651        H654   1.407       .  S
S652        H653   1.407       .  S
C657       C1398   1.401       .  A
C657        C662   1.413       .  A
C658       C1397   1.401       .  A
C658        C659   1.403       .  A
C658        H667   1.082       .  S
C659       C1400   1.414       .  A
C659        S663   1.804       .  S
C660       C1399   1.414       .  A
C660        C661   1.396       .  A
C661        C662   1.390       .  A
C661        H668   1.084       .  S
C662        S664   1.797       .  S
S663        H666   1.405       .  S
S664        H665   1.404       .  S
C669       C1122   1.480       .  S
C669        C670   1.407       .  A
C669       C1414   1.415       .  A
C670        C671   1.389       .  A
C670        H679   1.084       .  S
C671        C672   1.410       .  A
C671        S675   1.806       .  S
C672       C1413   1.405       .  A
C673       C1412   1.405   1_455  A
C673        C674   1.402       .  A
C673        H680   1.084       .  S
C674       C1409   1.415   1_455  A
C674        S676   1.801       .  S
S675        H678   1.406       .  S
S676        H677   1.406       .  S
C681        C682   1.399       .  A
C681       C1426   1.414       .  A
C682        C683   1.400       .  A
C682        H691   1.084       .  S
C683        C684   1.415       .  A
C683        S687   1.805       .  S
C684       C1425   1.397       .  A
C685       C1424   1.397   1_455  A
C685        C686   1.396       .  A
C685        H692   1.083       .  S
C686       C1421   1.414   1_455  A
C686        S688   1.810       .  S
S687        H690   1.402       .  S
S688        H689   1.407       .  S
C693        C698   1.419   1_545  A
C694        C695   1.406       .  A
C694        H703   1.082       .  S
C695        S699   1.804       .  S
C696        C697   1.397   1_545  A
C697        C698   1.399       .  A
C697        H704   1.084       .  S
C698        S700   1.793       .  S
S699        H702   1.405       .  S
S700        H701   1.407       .  S
C705        C706   1.402       .  A
C706        C707   1.405       .  A
C706        H715   1.081       .  S
C707        C708   1.415       .  A
C707        S711   1.804       .  S
C709        C710   1.401       .  A
C709        H716   1.082       .  S
C710        S712   1.805       .  S
S711        H714   1.405       .  S
S712        H713   1.406       .  S
C717        C722   1.416       .  A
C718        C719   1.397       .  A
C718        H727   1.083       .  S
C719        S723   1.805       .  S
C720        C721   1.405       .  A
C721        C722   1.407       .  A
C721        H728   1.083       .  S
C722        S724   1.803       .  S
S723        H726   1.406       .  S
S724        H725   1.405       .  S
C729        C730   1.401   1_545  A
C730        C731   1.402       .  A
C730        H739   1.084       .  S
C731        C732   1.423   1_565  A
C731        S735   1.799       .  S
C733        C734   1.402       .  A
C733        H740   1.084       .  S
C734        S736   1.803       .  S
S735        H738   1.407       .  S
S736        H737   1.406       .  S
O741        C749   1.265       .  A
O741       Co761   1.977       .  S
O742        C750   1.251   1_545  A
O742       Co762   1.967       .  S
O743        C751   1.270       .  A
O743       Co763   2.026       .  S
O744        C752   1.296       .  A
O744       Co764   2.103       .  S
O745       Co762   1.945       .  S
O746       Co761   1.873       .  S
O747       C1120   1.258       .  A
O747       Co764   2.015       .  S
O748       C1119   1.277       .  A
O748       Co763   2.029       .  S
C749       O1118   1.277       .  A
C749       C1102   1.500       .  S
C750       O1117   1.258       .  A
C750       C1457   1.488       .  S
C751       C1051   1.466       .  S
O753       Co761   2.103       .  S
O754       Co762   2.033       .  S
O755       C1138   1.253   1_545  A
O755       Co763   1.971       .  S
O756       C1139   1.270       .  A
O756       Co764   1.983       .  S
O757        C769   1.279       .  A
O757       Co762   2.032       .  S
O758        C768   1.259       .  A
O758       Co761   2.014       .  S
O759        C766   1.262       .  A
O759       Co764   1.870       .  S
O760        C767   1.256   1_655  A
O760       Co763   1.951       .  S
Co761       O765   2.011       .  S
Co763      O1135   2.040       .  S
O765      Co1133   2.040       .  S
C767       C1027   1.468       .  S
C768       O1125   1.253       .  A
C768       C1075   1.479       .  S
C769       O1126   1.270   1_545  A
C769       C1433   1.493       .  S
C770       C1054   1.467       .  S
C770        C771   1.395       .  A
C770        C775   1.397       .  A
C771        C772   1.400       .  A
C771        H776   1.085       .  S
C772       C1042   1.476       .  S
C772        C773   1.401       .  A
C773        C774   1.405       .  A
C773        H777   1.084       .  S
C774       C1003   1.479       .  S
C774        C775   1.405       .  A
C775        H778   1.083       .  S
C779       C1099   1.487       .  S
C779        C780   1.406       .  A
C779        C784   1.406       .  A
C780        C781   1.408       .  A
C780        H785   1.083       .  S
C781        C991   1.493       .  S
C781        C782   1.406       .  A
C782        C783   1.404       .  A
C782        H786   1.084       .  S
C783       C1090   1.481       .  S
C783        C784   1.403       .  A
C784       H1157   1.084       .  S
H787       C1154   1.084       .  S
C788       C1078   1.481       .  S
C788        C789   1.403       .  A
C788        C793   1.404       .  A
C789        C790   1.402       .  A
C789       H1164   1.085       .  S
C790       C1066   1.481       .  S
C790        C791   1.403       .  A
C791        C792   1.410       .  A
C791        H795   1.083       .  S
C792        C979   1.495       .  S
C792        C793   1.409       .  A
C793        H796   1.083       .  S
H794       C1159   1.085       .  S
C797       C1030   1.469       .  S
C797        C798   1.395       .  A
C797        C802   1.400       .  A
C798        C799   1.398       .  A
C798        H803   1.085       .  S
C799       C1015   1.475       .  S
C799        C800   1.399       .  A
C800        C801   1.406       .  A
C800        H804   1.084       .  S
C801        C967   1.482       .  S
C801        C802   1.406       .  A
C802        H805   1.083       .  S
C806        C958   1.494       .  S
C806        C807   1.402       .  A
C806        C811   1.407       .  A
C807        C808   1.405       .  A
C807        H812   1.084       .  S
C808        C994   1.495       .  S
C808       C1179   1.410       .  A
C809       C1178   1.410       .  A
C809        C810   1.411       .  A
C809        H813   1.082       .  S
C810        C946   1.502       .  S
C810       C1181   1.412       .  A
C811       C1180   1.412       .  A
C811        H814   1.082       .  S
O815        C823   1.271       .  A
O815       Co835   1.895       .  S
O816        C824   1.259       .  A
O816       Co836   1.987       .  S
O817        C825   1.295       .  A
O817       Co837   2.065       .  S
O818        C826   1.266       .  A
O818       Co838   2.006   1_554  S
O819        C825   1.271       .  A
O819       Co836   1.892       .  S
O820        C826   1.261       .  A
O820       Co835   1.979       .  S
O821        C824   1.269       .  A
O821       Co838   2.026   1_554  S
O822        C823   1.299       .  A
O822       Co837   2.080       .  S
C823        C955   1.498       .  S
C824        C943   1.482       .  S
C825        C907   1.469       .  S
C826        C895   1.480       .  S
O827        C840   1.269       .  A
O827       Co835   2.007   1_556  S
O828        C841   1.241       .  A
O828       Co836   1.949   1_556  S
O829        C842   1.252       .  A
O829       Co837   1.993   1_556  S
O830        C843   1.261       .  A
O830       Co838   1.975       .  S
O831        C843   1.271       .  A
O831       Co836   2.021   1_556  S
O832        C842   1.245       .  A
O832       Co835   1.968   1_556  S
O833        C840   1.260       .  A
O833       Co838   1.969       .  S
O834        C841   1.251       .  A
O834       Co837   1.989   1_556  S
Co835       O839   1.928   1_554  S
Co836       O839   1.937   1_554  S
Co837       O839   2.245   1_554  S
Co838       O839   2.076       .  S
C840        C922   1.457       .  S
C841        C931   1.465       .  S
C842        C883   1.483       .  S
C843        C874   1.471       .  S
C844        C910   1.470       .  S
C844        C845   1.399       .  A
C845        H850   1.083       .  S
C846       C1006   1.481       .  S
C846        C847   1.405       .  A
C847        C848   1.400       .  A
C847        H851   1.083       .  S
C848        C898   1.476       .  S
C848        C849   1.401       .  A
C849        H852   1.085       .  S
C853        C886   1.474       .  S
C853        C854   1.400       .  A
C853        C858   1.398       .  A
C854        C855   1.408       .  A
C854        H859   1.083       .  S
C855        C982   1.497       .  S
C855       C1226   1.411       .  A
C856       C1225   1.411   1_545  A
C856        C857   1.411       .  A
C856        H860   1.083       .  S
C857        C871   1.496       .  S
C857       C1228   1.403   1_545  A
C858       C1227   1.403       .  A
C858        H861   1.083       .  S
C862        C934   1.466       .  S
C862        C863   1.397       .  A
C863        H868   1.083       .  S
C864        C970   1.481       .  S
C864        C865   1.406   1_455  A
C865        C866   1.404       .  A
C865        H869   1.083       .  S
C866        C919   1.481       .  S
C866        C867   1.398   1_655  A
C867        H870   1.084       .  S
C871        C872   1.408       .  A
C871        C876   1.419       .  A
C872        C873   1.402       .  A
C872        H881   1.084       .  S
C873        C874   1.413       .  A
C873        S877   1.808       .  S
C874        C875   1.400       .  A
C875        C876   1.402       .  A
C875        H882   1.084       .  S
C876        S878   1.810       .  S
S877        H880   1.399       .  S
S878        H879   1.407       .  S
C883        C884   1.407       .  A
C883        C888   1.417       .  A
C884        C885   1.401       .  A
C884        H893   1.083       .  S
C885        C886   1.410       .  A
C885        S889   1.803       .  S
C886        C887   1.401       .  A
C887        C888   1.398       .  A
C887        H894   1.085       .  S
C888        S890   1.802       .  S
S889        H892   1.404       .  S
S890        H891   1.405       .  S
C895        C896   1.408       .  A
C895        C900   1.417       .  A
C896        C897   1.400       .  A
C896        H905   1.083       .  S
C897        C898   1.411       .  A
C897        S901   1.804       .  S
C898        C899   1.400       .  A
C899        C900   1.396       .  A
C899        H906   1.083       .  S
C900        S902   1.804       .  S
S901        H904   1.406       .  S
S902        H903   1.401       .  S
C907        C908   1.403       .  A
C907        C912   1.412       .  A
C908        C909   1.401       .  A
C908        H917   1.083       .  S
C909        C910   1.412       .  A
C909        S913   1.804       .  S
C910        C911   1.399       .  A
C911        C912   1.394       .  A
C911        H918   1.084       .  S
C912        S914   1.800       .  S
S913        H916   1.406       .  S
S914        H915   1.406       .  S
C919        C920   1.405       .  A
C919        C924   1.417       .  A
C920        C921   1.398       .  A
C920        H929   1.084       .  S
C921        C922   1.412       .  A
C921        S925   1.807       .  S
C922        C923   1.398       .  A
C923        C924   1.392       .  A
C923        H930   1.085       .  S
C924        S926   1.806       .  S
S925        H928   1.399       .  S
S926        H927   1.407       .  S
C931        C932   1.404       .  A
C931        C936   1.411       .  A
C932        C933   1.399       .  A
C932        H941   1.083       .  S
C933        C934   1.409       .  A
C933        S937   1.804       .  S
C934        C935   1.401       .  A
C935        C936   1.390       .  A
C935        H942   1.085       .  S
C936        S938   1.802       .  S
S937        H940   1.405       .  S
S938        H939   1.403       .  S
C943        C944   1.403       .  A
C943        C948   1.412       .  A
C944        C945   1.400       .  A
C944        H953   1.084       .  S
C945        C946   1.419       .  A
C945        S949   1.805       .  S
C946        C947   1.412       .  A
C947        C948   1.408       .  A
C947        H954   1.083       .  S
C948        S950   1.803       .  S
S949        H952   1.407       .  S
S950        H951   1.403       .  S
C955        C956   1.410       .  A
C955        C960   1.419       .  A
C956        C957   1.403       .  A
C956        H965   1.083       .  S
C957        C958   1.414       .  A
C957        S961   1.804       .  S
C958        C959   1.406       .  A
C959        C960   1.402       .  A
C959        H966   1.084       .  S
C960        S962   1.802       .  S
S961        H964   1.406       .  S
S962        H963   1.408       .  S
C967        C968   1.404   1_455  A
C967        C972   1.413       .  A
C968        C969   1.395       .  A
C968        H977   1.084       .  S
C969        C970   1.414   1_655  A
C969        S973   1.805       .  S
C970        C971   1.405       .  A
C971        C972   1.402       .  A
S973        H976   1.407       .  S
C979       C1350   1.406       .  A
C979        C984   1.417       .  A
C980       C1349   1.406   1_545  A
C980        C981   1.405       .  A
C980        H989   1.082       .  S
C981       C1352   1.417   1_545  A
C981        S985   1.809       .  S
C982       C1351   1.417       .  A
C982        C983   1.407       .  A
C983        C984   1.402       .  A
C983        H990   1.083       .  S
C984        S986   1.804       .  S
S985        H988   1.406       .  S
S986        H987   1.407       .  S
C991       C1362   1.407       .  A
C991        C996   1.415       .  A
C992       C1361   1.407   1_545  A
C992        C993   1.404       .  A
C992       H1001   1.083       .  S
C993       C1364   1.416       .  A
C993        S997   1.803       .  S
C994       C1363   1.416       .  A
C994        C995   1.407       .  A
C995        C996   1.400       .  A
C995       H1002   1.083       .  S
C996        S998   1.804       .  S
S997       H1000   1.407       .  S
S998        H999   1.407       .  S
C1003      C1008   1.413       .  A
C1004      C1005   1.397       .  A
C1004      H1013   1.084       .  S
C1005      S1009   1.805       .  S
C1006      C1007   1.404       .  A
C1007      C1008   1.395       .  A
C1007      H1014   1.084       .  S
C1008      S1010   1.804       .  S
S1009      H1012   1.407       .  S
S1010      H1011   1.407       .  S
C1015      C1016   1.405   1_455  A
C1016      C1017   1.402       .  A
C1016      H1025   1.084       .  S
C1017      C1018   1.415   1_655  A
C1017      S1021   1.799       .  S
C1019      C1020   1.389       .  A
C1019      H1026   1.084       .  S
C1020      S1022   1.806       .  S
S1021      H1024   1.407       .  S
S1022      H1023   1.407       .  S
C1027      C1032   1.413   1_455  A
C1028      C1029   1.403       .  A
C1028      H1037   1.082       .  S
C1029      S1033   1.804       .  S
C1030      C1031   1.396   1_455  A
C1031      C1032   1.390       .  A
C1031      H1038   1.084       .  S
C1032      S1034   1.797       .  S
S1033      H1036   1.405       .  S
S1034      H1035   1.404       .  S
C1039      C1040   1.407       .  A
C1040      C1041   1.389       .  A
C1040      H1049   1.084       .  S
C1041      C1042   1.410       .  A
C1041      S1045   1.806       .  S
C1043      C1044   1.402       .  A
C1043      H1050   1.084       .  S
C1044      S1046   1.801       .  S
S1045      H1048   1.406       .  S
S1046      H1047   1.406       .  S
C1051      C1052   1.399       .  A
C1052      C1053   1.400       .  A
C1052      H1061   1.084       .  S
C1053      C1054   1.415       .  A
C1053      S1057   1.805       .  S
C1055      C1056   1.396       .  A
C1055      H1062   1.083       .  S
C1056      S1058   1.810       .  S
S1057      H1060   1.402       .  S
S1058      H1059   1.407       .  S
C1063      C1139   1.493       .  S
C1063      C1434   1.407       .  A
C1063      C1068   1.419       .  A
C1064      C1433   1.407       .  A
C1064      C1065   1.406       .  A
C1064      H1073   1.082       .  S
C1065      C1436   1.413       .  A
C1065      S1069   1.804       .  S
C1066      C1435   1.413       .  A
C1066      C1067   1.397       .  A
C1067      C1068   1.399       .  A
C1067      H1074   1.084       .  S
C1068      S1070   1.793       .  S
S1069      H1072   1.405       .  S
S1070      H1071   1.407       .  S
C1075      C1076   1.402       .  A
C1075      C1450   1.413       .  A
C1076      C1077   1.405       .  A
C1076      H1085   1.081       .  S
C1077      C1078   1.415       .  A
C1077      S1081   1.804       .  S
C1078      C1449   1.399       .  A
C1079      C1448   1.399   1_545  A
C1079      C1080   1.401       .  A
C1079      H1086   1.082       .  S
C1080      C1445   1.413   1_545  A
C1080      S1082   1.805       .  S
S1081      H1084   1.405       .  S
S1082      H1083   1.406       .  S
C1087      C1120   1.488       .  S
C1087      C1458   1.408       .  A
C1087      C1092   1.416       .  A
C1088      C1457   1.408   1_545  A
C1088      C1089   1.397       .  A
C1088      H1097   1.083       .  S
C1089      C1460   1.409   1_545  A
C1089      S1093   1.805       .  S
C1090      C1459   1.409       .  A
C1090      C1091   1.405       .  A
C1091      C1092   1.407       .  A
C1091      H1098   1.083       .  S
C1092      S1094   1.803       .  S
S1093      H1096   1.406       .  S
S1094      H1095   1.405       .  S
C1099      C1100   1.401       .  A
C1099      C1474   1.412       .  A
C1100      C1101   1.402       .  A
C1100      H1109   1.084       .  S
C1101      C1102   1.423       .  A
C1101      S1105   1.799       .  S
C1102      C1473   1.410       .  A
C1103      C1472   1.410       .  A
C1103      C1104   1.402       .  A
C1103      H1110   1.084       .  S
C1104      C1469   1.412       .  A
C1104      S1106   1.803       .  S
S1105      H1108   1.407       .  S
S1106      H1107   1.406       .  S
O1111      C1119   1.265   1_565  A
O1111     Co1131   1.977       .  S
O1112      C1120   1.251       .  A
O1112     Co1132   1.967       .  S
O1113      C1121   1.270       .  A
O1113     Co1133   2.026       .  S
O1114      C1122   1.296       .  A
O1114     Co1134   2.103       .  S
O1115     Co1132   1.945       .  S
O1116     Co1131   1.873       .  S
O1117     Co1134   2.015       .  S
O1118     Co1133   2.029       .  S
C1119      C1472   1.500       .  S
C1121      C1421   1.466       .  S
O1123     Co1131   2.103       .  S
O1124     Co1132   2.033       .  S
O1125     Co1133   1.971       .  S
O1126     Co1134   1.983       .  S
O1127      C1139   1.279       .  A
O1127     Co1132   2.032       .  S
O1128      C1138   1.259       .  A
O1128     Co1131   2.014       .  S
O1129      C1136   1.262       .  A
O1129     Co1134   1.870       .  S
O1130      C1137   1.256   1_655  A
O1130     Co1133   1.951       .  S
Co1131     O1135   2.011   1_565  S
C1137      C1397   1.468       .  S
C1138      C1445   1.479       .  S
C1140      C1424   1.467       .  S
C1140      C1141   1.395       .  A
C1140      C1145   1.397       .  A
C1141      C1142   1.400       .  A
C1141      H1146   1.085       .  S
C1142      C1412   1.476       .  S
C1142      C1143   1.401       .  A
C1143      C1144   1.405       .  A
C1143      H1147   1.084       .  S
C1144      C1373   1.479       .  S
C1144      C1145   1.405       .  A
C1145      H1148   1.083       .  S
C1149      C1469   1.487       .  S
C1149      C1150   1.406       .  A
C1149      C1154   1.406   1_545  A
C1150      C1151   1.408   1_545  A
C1150      H1155   1.083       .  S
C1151      C1361   1.493       .  S
C1151      C1152   1.406       .  A
C1152      C1153   1.404       .  A
C1152      H1156   1.084       .  S
C1153      C1460   1.481       .  S
C1153      C1154   1.403       .  A
C1158      C1448   1.481       .  S
C1158      C1159   1.403       .  A
C1158      C1163   1.404       .  A
C1159      C1160   1.402   1_565  A
C1160      C1436   1.481       .  S
C1160      C1161   1.403   1_545  A
C1161      C1162   1.410       .  A
C1161      H1165   1.083   1_565  S
C1162      C1349   1.495       .  S
C1162      C1163   1.409       .  A
C1163      H1166   1.083       .  S
C1167      C1400   1.469       .  S
C1167      C1168   1.395       .  A
C1167      C1172   1.400       .  A
C1168      C1169   1.398       .  A
C1168      H1173   1.085       .  S
C1169      C1385   1.475       .  S
C1169      C1170   1.399       .  A
C1170      C1171   1.406       .  A
C1170      H1174   1.084       .  S
C1171      C1337   1.482       .  S
C1171      C1172   1.406       .  A
C1172      H1175   1.083       .  S
C1176      C1328   1.494       .  S
C1176      C1177   1.402       .  A
C1176      C1181   1.407   1_565  A
C1177      C1178   1.405   1_565  A
C1177      H1182   1.084       .  S
C1178      C1364   1.495       .  S
C1179      C1180   1.411       .  A
C1179      H1183   1.082       .  S
C1180      C1316   1.502       .  S
C1181      H1184   1.082       .  S
O1185      C1193   1.271       .  A
O1185     Co1205   1.895       .  S
O1186      C1194   1.259       .  A
O1186     Co1206   1.987       .  S
O1187      C1195   1.295       .  A
O1187     Co1207   2.065       .  S
O1188      C1196   1.266       .  A
O1188     Co1208   2.006   1_554  S
O1189      C1195   1.271       .  A
O1189     Co1206   1.892       .  S
O1190      C1196   1.261       .  A
O1190     Co1205   1.979       .  S
O1191      C1194   1.269       .  A
O1191     Co1208   2.026   1_554  S
O1192      C1193   1.299       .  A
O1192     Co1207   2.080       .  S
C1193      C1325   1.498       .  S
C1194      C1313   1.482       .  S
C1195      C1277   1.469       .  S
C1196      C1265   1.480       .  S
O1197      C1210   1.269       .  A
O1197     Co1205   2.007   1_556  S
O1198      C1211   1.241       .  A
O1198     Co1206   1.949   1_556  S
O1199      C1212   1.252       .  A
O1199     Co1207   1.993   1_556  S
O1200      C1213   1.261       .  A
O1200     Co1208   1.975       .  S
O1201      C1213   1.271       .  A
O1201     Co1206   2.021   1_556  S
O1202      C1212   1.245       .  A
O1202     Co1205   1.968   1_556  S
O1203      C1210   1.260       .  A
O1203     Co1208   1.969       .  S
O1204      C1211   1.251       .  A
O1204     Co1207   1.989   1_556  S
Co1205     O1209   1.928   1_554  S
Co1206     O1209   1.937   1_554  S
Co1207     O1209   2.245   1_554  S
Co1208     O1209   2.076       .  S
C1210      C1292   1.457       .  S
C1211      C1301   1.465       .  S
C1212      C1253   1.483       .  S
C1213      C1244   1.471       .  S
C1214      C1280   1.470       .  S
C1214      C1215   1.399       .  A
C1215      H1220   1.083       .  S
C1216      C1376   1.481       .  S
C1216      C1217   1.405       .  A
C1217      C1218   1.400       .  A
C1217      H1221   1.083       .  S
C1218      C1268   1.476       .  S
C1218      C1219   1.401       .  A
C1219      H1222   1.085       .  S
C1223      C1256   1.474       .  S
C1223      C1224   1.400       .  A
C1223      C1228   1.398       .  A
C1224      C1225   1.408       .  A
C1224      H1229   1.083       .  S
C1225      C1352   1.497       .  S
C1226      C1227   1.411       .  A
C1226      H1230   1.083       .  S
C1227      C1241   1.496       .  S
C1228      H1231   1.083       .  S
C1232      C1304   1.466       .  S
C1232      C1233   1.397       .  A
C1233      H1238   1.083       .  S
C1234      C1340   1.481       .  S
C1234      C1235   1.406   1_455  A
C1235      C1236   1.404       .  A
C1235      H1239   1.083       .  S
C1236      C1289   1.481       .  S
C1236      C1237   1.398   1_655  A
C1237      H1240   1.084       .  S
C1241      C1242   1.408       .  A
C1241      C1246   1.419       .  A
C1242      C1243   1.402       .  A
C1242      H1251   1.084       .  S
C1243      C1244   1.413       .  A
C1243      S1247   1.808       .  S
C1244      C1245   1.400       .  A
C1245      C1246   1.402       .  A
C1245      H1252   1.084       .  S
C1246      S1248   1.810       .  S
S1247      H1250   1.399       .  S
S1248      H1249   1.407       .  S
C1253      C1254   1.407       .  A
C1253      C1258   1.417       .  A
C1254      C1255   1.401       .  A
C1254      H1263   1.083       .  S
C1255      C1256   1.410       .  A
C1255      S1259   1.803       .  S
C1256      C1257   1.401       .  A
C1257      C1258   1.398       .  A
C1257      H1264   1.085       .  S
C1258      S1260   1.802       .  S
S1259      H1262   1.404       .  S
S1260      H1261   1.405       .  S
C1265      C1266   1.408       .  A
C1265      C1270   1.417       .  A
C1266      C1267   1.400       .  A
C1266      H1275   1.083       .  S
C1267      C1268   1.411       .  A
C1267      S1271   1.804       .  S
C1268      C1269   1.400       .  A
C1269      C1270   1.396       .  A
C1269      H1276   1.083       .  S
C1270      S1272   1.804       .  S
S1271      H1274   1.406       .  S
S1272      H1273   1.401       .  S
C1277      C1278   1.403       .  A
C1277      C1282   1.412       .  A
C1278      C1279   1.401       .  A
C1278      H1287   1.083       .  S
C1279      C1280   1.412       .  A
C1279      S1283   1.804       .  S
C1280      C1281   1.399       .  A
C1281      C1282   1.394       .  A
C1281      H1288   1.084       .  S
C1282      S1284   1.800       .  S
S1283      H1286   1.406       .  S
S1284      H1285   1.406       .  S
C1289      C1290   1.405       .  A
C1289      C1294   1.417       .  A
C1290      C1291   1.398       .  A
C1290      H1299   1.084       .  S
C1291      C1292   1.412       .  A
C1291      S1295   1.807       .  S
C1292      C1293   1.398       .  A
C1293      C1294   1.392       .  A
C1293      H1300   1.085       .  S
C1294      S1296   1.806       .  S
S1295      H1298   1.399       .  S
S1296      H1297   1.407       .  S
C1301      C1302   1.404       .  A
C1301      C1306   1.411       .  A
C1302      C1303   1.399       .  A
C1302      H1311   1.083       .  S
C1303      C1304   1.409       .  A
C1303      S1307   1.804       .  S
C1304      C1305   1.401       .  A
C1305      C1306   1.390       .  A
C1305      H1312   1.085       .  S
C1306      S1308   1.802       .  S
S1307      H1310   1.405       .  S
S1308      H1309   1.403       .  S
C1313      C1314   1.403       .  A
C1313      C1318   1.412       .  A
C1314      C1315   1.400       .  A
C1314      H1323   1.084       .  S
C1315      C1316   1.419       .  A
C1315      S1319   1.805       .  S
C1316      C1317   1.412       .  A
C1317      C1318   1.408       .  A
C1317      H1324   1.083       .  S
C1318      S1320   1.803       .  S
S1319      H1322   1.407       .  S
S1320      H1321   1.403       .  S
C1325      C1326   1.410       .  A
C1325      C1330   1.419       .  A
C1326      C1327   1.403       .  A
C1326      H1335   1.083       .  S
C1327      C1328   1.414       .  A
C1327      S1331   1.804       .  S
C1328      C1329   1.406       .  A
C1329      C1330   1.402       .  A
C1329      H1336   1.084       .  S
C1330      S1332   1.802       .  S
S1331      H1334   1.406       .  S
S1332      H1333   1.408       .  S
C1337      C1338   1.404   1_455  A
C1337      C1342   1.413       .  A
C1338      C1339   1.395       .  A
C1338      H1347   1.084       .  S
C1339      C1340   1.414   1_655  A
C1339      S1343   1.805       .  S
C1340      C1341   1.405       .  A
C1341      C1342   1.402       .  A
S1343      H1346   1.407       .  S
C1349      C1354   1.417       .  A
C1350      C1351   1.405       .  A
C1350      H1359   1.082       .  S
C1351      S1355   1.809       .  S
C1352      C1353   1.407       .  A
C1353      C1354   1.402       .  A
C1353      H1360   1.083       .  S
C1354      S1356   1.804       .  S
S1355      H1358   1.406       .  S
S1356      H1357   1.407       .  S
C1361      C1366   1.415       .  A
C1362      C1363   1.404       .  A
C1362      H1371   1.083       .  S
C1363      S1367   1.803       .  S
C1364      C1365   1.407   1_545  A
C1365      C1366   1.400       .  A
C1365      H1372   1.083       .  S
C1366      S1368   1.804       .  S
S1367      H1370   1.407       .  S
S1368      H1369   1.407       .  S
C1373      C1378   1.413       .  A
C1374      C1375   1.397       .  A
C1374      H1383   1.084       .  S
C1375      S1379   1.805       .  S
C1376      C1377   1.404       .  A
C1377      C1378   1.395       .  A
C1377      H1384   1.084       .  S
C1378      S1380   1.804       .  S
S1379      H1382   1.407       .  S
S1380      H1381   1.407       .  S
C1385      C1386   1.405   1_455  A
C1386      C1387   1.402       .  A
C1386      H1395   1.084       .  S
C1387      C1388   1.415   1_655  A
C1387      S1391   1.799       .  S
C1389      C1390   1.389       .  A
C1389      H1396   1.084       .  S
C1390      S1392   1.806       .  S
S1391      H1394   1.407       .  S
S1392      H1393   1.407       .  S
C1397      C1402   1.413   1_455  A
C1398      C1399   1.403       .  A
C1398      H1407   1.082       .  S
C1399      S1403   1.804       .  S
C1400      C1401   1.396   1_455  A
C1401      C1402   1.390       .  A
C1401      H1408   1.084       .  S
C1402      S1404   1.797       .  S
S1403      H1406   1.405       .  S
S1404      H1405   1.404       .  S
C1409      C1410   1.407       .  A
C1410      C1411   1.389       .  A
C1410      H1419   1.084       .  S
C1411      C1412   1.410       .  A
C1411      S1415   1.806       .  S
C1413      C1414   1.402       .  A
C1413      H1420   1.084       .  S
C1414      S1416   1.801       .  S
S1415      H1418   1.406       .  S
S1416      H1417   1.406       .  S
C1421      C1422   1.399       .  A
C1422      C1423   1.400       .  A
C1422      H1431   1.084       .  S
C1423      C1424   1.415       .  A
C1423      S1427   1.805       .  S
C1425      C1426   1.396       .  A
C1425      H1432   1.083       .  S
C1426      S1428   1.810       .  S
S1427      H1430   1.402       .  S
S1428      H1429   1.407       .  S
C1433      C1438   1.419   1_545  A
C1434      C1435   1.406       .  A
C1434      H1443   1.082       .  S
C1435      S1439   1.804       .  S
C1436      C1437   1.397   1_545  A
C1437      C1438   1.399       .  A
C1437      H1444   1.084       .  S
C1438      S1440   1.793       .  S
S1439      H1442   1.405       .  S
S1440      H1441   1.407       .  S
C1445      C1446   1.402       .  A
C1446      C1447   1.405       .  A
C1446      H1455   1.081       .  S
C1447      C1448   1.415       .  A
C1447      S1451   1.804       .  S
C1449      C1450   1.401       .  A
C1449      H1456   1.082       .  S
C1450      S1452   1.805       .  S
S1451      H1454   1.405       .  S
S1452      H1453   1.406       .  S
C1457      C1462   1.416       .  A
C1458      C1459   1.397       .  A
C1458      H1467   1.083       .  S
C1459      S1463   1.805       .  S
C1460      C1461   1.405       .  A
C1461      C1462   1.407       .  A
C1461      H1468   1.083       .  S
C1462      S1464   1.803       .  S
S1463      H1466   1.406       .  S
S1464      H1465   1.405       .  S
C1469      C1470   1.401   1_545  A
C1470      C1471   1.402       .  A
C1470      H1479   1.084       .  S
C1471      C1472   1.423   1_565  A
C1471      S1475   1.799       .  S
C1473      C1474   1.402       .  A
C1473      H1480   1.084       .  S
C1474      S1476   1.803       .  S
S1475      H1478   1.407       .  S
S1476      H1477   1.406       .  S
