geometry optimzed in LAMMPS
_audit_creation_date              2020-11-30 
_audit_creation_method            'lammps2cif' 
_symmetry_space_group_name_H-M    'P1' 
_symmetry_Int_Tables_number       1 
_symmetry_cell_setting            triclinic 
loop_ 
_symmetry_equiv_pos_as_xyz 
  x,y,z 
_cell_length_a                    57.40577525 
_cell_length_b                    57.40569699326176 
_cell_length_c                    97.59011157391654 
_cell_angle_alpha                 89.97702035437165 
_cell_angle_beta                  90.0479195598625 
_cell_angle_gamma                 89.94179281590722 
loop_ 
_atom_site_label 
_atom_site_type_symbol 
_atom_site_fract_x 
_atom_site_fract_y 
_atom_site_fract_z 
_atom_site_charge 
O1          O  0.37882378  0.83598872  0.79923134    -0.57300
C2          C  0.38408070  0.84131838  0.84228237     0.75300
O3          O  0.36789384  0.76880005  0.82166678    -0.58500
C4          C  0.37072105  0.82056788  0.79122748     0.75300
C5          C  0.43167034  0.79355422  0.81861664     0.77700
Cd6        Cd  0.38356945  0.80869315  0.81930976     1.37500
O7          O  0.36926634  0.84337731  0.83271331    -0.57300
O8          O  0.42452392  0.81061838  0.81151765    -0.56100
C9          C  0.34810714  0.77495200  0.82613430     0.77600
O10         O  0.41629031  0.78269309  0.82535111    -0.58500
O11         O  0.39837240  0.82472833  0.84107655    -0.56900
O12         O  0.36895454  0.80035679  0.79620030    -0.56900
O13         O  0.34532797  0.79655974  0.82798115    -0.56100
O14         O  0.66174714  0.81939345  0.80030332    -0.57300
C15         C  0.65786062  0.82733742  0.84301829     0.75300
O16         O  0.62030791  0.76770440  0.82235330    -0.58500
C17         C  0.65939775  0.80304517  0.79167408     0.75300
C18         C  0.69351432  0.76362246  0.82582083     0.77700
Cd19       Cd  0.65470772  0.79435636  0.82076506     1.37500
O20         O  0.66158621  0.83342958  0.83071088    -0.57300
O21         O  0.69617577  0.78419216  0.82147525    -0.56100
C22         C  0.60565294  0.78424296  0.82235845     0.77600
O23         O  0.67274029  0.75750542  0.82837188    -0.58500
O24         O  0.65366877  0.80596213  0.84493189    -0.56900
O25         O  0.65456465  0.78324042  0.79654765    -0.56900
O26         O  0.61393456  0.80459056  0.82163648    -0.56100
O27         O  0.66763775  0.10527936  0.63525144    -0.57300
C28         C  0.67617367  0.10815678  0.68868904     0.75300
O29         O  0.70522703  0.06907179  0.65413150    -0.58500
C30         C  0.64614233  0.10783452  0.63772363     0.75300
C31         C  0.71455700  0.13920810  0.65293771     0.77700
Cd32       Cd  0.68092695  0.10359684  0.65908583     1.37500
O33         O  0.66099737  0.11657869  0.68061702    -0.57300
O34         O  0.69323073  0.14402054  0.65460074    -0.56100
C35         C  0.68870046  0.05464190  0.65544870     0.77600
O36         O  0.72018533  0.11793321  0.65382956    -0.58500
O37         O  0.69285438  0.09763694  0.68299707    -0.56900
O38         O  0.64069865  0.10957263  0.65027894    -0.56900
O39         O  0.66893523  0.06295039  0.65844346    -0.56100
O40         O  0.65348071  0.82041017  0.68090766    -0.57300
C41         C  0.63613283  0.82843363  0.64042753     0.75300
O42         O  0.69871407  0.86608203  0.65270634    -0.58500
C43         C  0.66906169  0.82711141  0.68921182     0.75300
C44         C  0.70759282  0.79483124  0.65545416     0.77700
Cd45       Cd  0.67437516  0.83203579  0.65984207     1.37500
O46         O  0.63266915  0.82775585  0.65320950    -0.57300
O47         O  0.68826634  0.79164687  0.66135766    -0.56100
C48         C  0.68493441  0.88105610  0.65774205     0.77600
O49         O  0.71117811  0.81503181  0.65068255    -0.58500
O50         O  0.65725302  0.82936697  0.63679199    -0.56900
O51         O  0.68696666  0.83621624  0.68385283    -0.56900
O52         O  0.66685455  0.87318855  0.66345093    -0.56100
O53         O  0.37013996  0.83753891  0.65081754    -0.57300
C54         C  0.33997958  0.84003772  0.68983278     0.75300
O55         O  0.30933054  0.87936428  0.65324773    -0.58500
C56         C  0.36399716  0.84087812  0.63849637     0.75300
C57         C  0.29704557  0.80781931  0.65622625     0.77700
Cd58       Cd  0.33082254  0.84421800  0.66078413     1.37500
O59         O  0.35358971  0.83101931  0.68105637    -0.57300
O60         O  0.31854519  0.80375512  0.65778930    -0.56100
C61         C  0.32297140  0.89333237  0.65931613     0.77600
O62         O  0.29105367  0.82902626  0.65678238    -0.58500
O63         O  0.32204309  0.85006114  0.68513704    -0.56900
O64         O  0.34265014  0.84528891  0.63664937    -0.56900
O65         O  0.33952675  0.88445458  0.66608440    -0.56100
O66         O  0.33559896  0.11288125  0.68774708    -0.57300
C67         C  0.37648607  0.11972229  0.64057595     0.75300
O68         O  0.31882087  0.08205889  0.66117555    -0.58500
C69         C  0.35489966  0.11966469  0.69247081     0.75300
C70         C  0.30908867  0.15042219  0.65738360     0.77700
Cd71       Cd  0.34453888  0.11606398  0.66328981     1.37500
O72         O  0.38175726  0.12848785  0.65209598    -0.57300
O73         O  0.32891203  0.15608908  0.66198718    -0.56100
C74         C  0.33492908  0.06700459  0.66114648     0.77600
O75         O  0.30576534  0.12889887  0.65556939    -0.58500
O76         O  0.35639375  0.11099195  0.63956904    -0.56900
O77         O  0.37001242  0.12518767  0.68356764    -0.56900
O78         O  0.35546209  0.07476866  0.66241762    -0.56100
O79         O  0.38219779  0.12661074  0.80305918    -0.57300
C80         C  0.38275920  0.12140513  0.84531737     0.75300
O81         O  0.42590912  0.17821753  0.82544320    -0.58500
C82         C  0.38432339  0.14203739  0.79387249     0.75300
C83         C  0.35427713  0.18739054  0.82576550     0.77700
Cd84       Cd  0.39053770  0.15305627  0.82267134     1.37500
O85         O  0.38256882  0.11440921  0.83299606    -0.57300
O86         O  0.34993613  0.16630536  0.82302973    -0.56100
C87         C  0.44002908  0.16130200  0.82619368     0.77600
O88         O  0.37548663  0.19238523  0.82786864    -0.58500
O89         O  0.38521158  0.14310558  0.84695084    -0.56900
O90         O  0.38974537  0.16217836  0.79801413    -0.56900
O91         O  0.43134083  0.14123261  0.82485704    -0.56100
O92         O  0.66829489  0.10055532  0.83025055    -0.57300
C93         C  0.66478796  0.13059455  0.79150681     0.75300
O94         O  0.62886654  0.16535659  0.82770836    -0.58500
C95         C  0.66778429  0.10673949  0.84271330     0.75300
C96         C  0.69873712  0.17413358  0.82336650     0.77700
Cd97       Cd  0.66208230  0.14005867  0.82068088     1.37500
O98         O  0.67367237  0.11651127  0.80006648    -0.57300
O99         O  0.70306973  0.15261932  0.82225501    -0.56100
C100        C  0.61334516  0.15132707  0.82357493     0.77600
O101        O  0.67743635  0.17982695  0.82335251    -0.58500
O102        O  0.65464281  0.14809556  0.79656151    -0.56900
O103        O  0.66517407  0.12828463  0.84489193    -0.56900
O104        O  0.62052491  0.13215487  0.81879873    -0.56100
C105        C  0.40483985  0.97899237  0.94039558     0.87000
C106        C  0.39608531  0.00037367  0.93234831    -0.53200
C107        C  0.40055385  0.99959171  0.91857713     0.09900
C108        C  0.41371778  0.97753674  0.91408103     0.20900
C109        C  0.39429690  0.95756816  0.93291714    -0.54000
C110        C  0.39860808  0.95712763  0.91906499     0.10000
C111        C  0.43090521  0.97706904  0.93673660    -0.53500
C112        C  0.43548949  0.97678388  0.92313141     0.10600
H113        H  0.38795021  0.01522678  0.93728307     0.15100
H114        H  0.41777504  0.97672841  0.90296471     0.00800
H115        H  0.38484022  0.94378017  0.93808799     0.15400
H116        H  0.44494070  0.97482815  0.94404983     0.15200
C117        C  0.40864693  0.97640410  0.04373017     0.87000
C118        C  0.39939114  0.95551967  0.05201272    -0.53200
C119        C  0.40845724  0.95382764  0.06491656     0.09900
C120        C  0.42580252  0.97321918  0.06855709     0.20900
C121        C  0.40298075  0.99751861  0.05310658    -0.54000
C122        C  0.41172573  0.99579730  0.06619678     0.10000
C123        C  0.43528069  0.97452393  0.04432210    -0.53500
C124        C  0.44431686  0.97263266  0.05712601     0.10600
H125        H  0.38645814  0.94341631  0.04811900     0.15100
H126        H  0.43294898  0.97126623  0.07905034     0.00800
H127        H  0.39203532  0.01201627  0.05020389     0.15400
H128        H  0.44625785  0.97500017  0.03524071     0.15200
C129        C  0.64362819  0.96830334  0.93932657     0.87000
C130        C  0.65174655  0.94779947  0.93038558    -0.53200
C131        C  0.64266649  0.94804877  0.91743321     0.09900
C132        C  0.62665487  0.96883527  0.91439258     0.20900
C133        C  0.64964598  0.99042608  0.93102072    -0.54000
C134        C  0.64114070  0.99048706  0.91792640     0.10000
C135        C  0.61671925  0.96747237  0.93846491    -0.53500
C136        C  0.60787714  0.96803895  0.92552023     0.10600
H137        H  0.66306736  0.93399125  0.93408266     0.15100
H138        H  0.61974108  0.96889353  0.90375899     0.00800
H139        H  0.65945925  0.00498406  0.93510777     0.15400
H140        H  0.60518640  0.96741333  0.94721865     0.15200
C141        C  0.65686683  0.98178773  0.04007216     0.87000
C142        C  0.66318596  0.00321036  0.04885040    -0.53200
C143        C  0.65245829  0.00359228  0.06134089     0.09900
C144        C  0.63675157  0.98255635  0.06410417     0.20900
C145        C  0.66365940  0.96116087  0.04953032    -0.54000
C146        C  0.65286027  0.96146206  0.06203859     0.10000
C147        C  0.63005229  0.98102633  0.03967106    -0.53500
C148        C  0.61943398  0.98174408  0.05214871     0.10600
H149        H  0.67530717  0.01663135  0.04561628     0.15100
H150        H  0.62819343  0.98316971  0.07430018     0.00800
H151        H  0.67695757  0.94839192  0.04723058     0.15400
H152        H  0.62035331  0.97918034  0.03016194     0.15200
C153        C  0.50416973  0.85491962  0.54171053     0.87000
C154        C  0.52282220  0.84847484  0.55248379    -0.53200
C155        C  0.51981233  0.85876135  0.56510961     0.09900
C156        C  0.49797928  0.87433437  0.56570868     0.20900
C157        C  0.48112266  0.84794669  0.54891562    -0.54000
C158        C  0.47813231  0.85805880  0.56145886     0.10000
C159        C  0.50374483  0.88163557  0.54145561    -0.53500
C160        C  0.50062755  0.89178555  0.55387769     0.10600
H161        H  0.53686622  0.83635760  0.55034109     0.15100
H162        H  0.49457358  0.88243359  0.57577939     0.00800
H163        H  0.46863913  0.83543110  0.54509497     0.15400
H164        H  0.50604385  0.89179028  0.53214963     0.15200
C165        C  0.51346038  0.86081655  0.43930921     0.87000
C166        C  0.49149423  0.85331414  0.43137757    -0.53200
C167        C  0.49152103  0.85908856  0.41772513     0.09900
C168        C  0.51371800  0.87209272  0.41327851     0.20900
C169        C  0.53398903  0.85029869  0.43112006    -0.54000
C170        C  0.53396309  0.85584154  0.41740997     0.10000
C171        C  0.51581039  0.88710731  0.43641744    -0.53500
C172        C  0.51548754  0.89294463  0.42301563     0.10600
H173        H  0.47731063  0.84383836  0.43617347     0.15100
H174        H  0.51436075  0.87726846  0.40237168     0.00800
H175        H  0.54746997  0.83968044  0.43579823     0.15400
H176        H  0.51836976  0.90065293  0.44398346     0.15200
C177        C  0.50727717  0.10477961  0.53917064     0.87000
C178        C  0.48706226  0.11273689  0.54843744    -0.53200
C179        C  0.48663179  0.10211968  0.56100841     0.09900
C180        C  0.50673565  0.08475618  0.56324508     0.20900
C181        C  0.52939503  0.10918538  0.54796980    -0.54000
C182        C  0.52881076  0.09910622  0.56065279     0.10000
C183        C  0.50556337  0.07807352  0.53876062    -0.53500
C184        C  0.50562735  0.06745425  0.55125450     0.10600
H185        H  0.47483396  0.12626426  0.54547298     0.15100
H186        H  0.50643852  0.07623141  0.57345426     0.00800
H187        H  0.54469400  0.11860368  0.54467039     0.15400
H188        H  0.50446493  0.06835441  0.52924111     0.15200
C189        C  0.51464023  0.10207559  0.43859031     0.87000
C190        C  0.53191218  0.11228318  0.42824818    -0.53200
C191        C  0.52957700  0.10357487  0.41528582     0.09900
C192        C  0.51007553  0.08535664  0.41378037     0.20900
C193        C  0.49028200  0.10588758  0.43221707    -0.54000
C194        C  0.48797912  0.09737391  0.41920486     0.10000
C195        C  0.51793190  0.07545446  0.43742347    -0.53500
C196        C  0.51565408  0.06662953  0.42454170     0.10600
H197        H  0.54533103  0.12474705  0.43103328     0.15100
H198        H  0.50808929  0.07853613  0.40321746     0.00800
H199        H  0.47595572  0.11427589  0.43752322     0.15400
H200        H  0.52032142  0.06395418  0.44610964     0.15200
O201        O  0.66872473  0.13658991  0.17836218    -0.57300
C202        C  0.66060363  0.12252167  0.13657736     0.75300
O203        O  0.61413597  0.17471946  0.15472871    -0.58500
C204        C  0.66046276  0.15135659  0.18674223     0.75300
C205        C  0.68334567  0.19477433  0.15256840     0.77700
Cd206      Cd  0.65270017  0.15631912  0.15795020     1.37500
O207        O  0.66384588  0.11740249  0.14906554    -0.57300
O208        O  0.69022749  0.17622413  0.15828740    -0.56100
C209        C  0.60289999  0.15750855  0.15946157     0.77600
O210        O  0.66221703  0.19531365  0.14880353    -0.58500
O211        O  0.65441383  0.14323051  0.13411359    -0.56900
O212        O  0.64924796  0.16823459  0.18165448    -0.56900
O213        O  0.61475971  0.14003169  0.16313016    -0.56100
O214        O  0.37044411  0.10202981  0.15460772    -0.57300
C215        C  0.36779063  0.13324243  0.19325958     0.75300
O216        O  0.41526415  0.16176101  0.16047619    -0.58500
C217        C  0.37338872  0.10815404  0.14224563     0.75300
C218        C  0.34502919  0.17738173  0.15949433     0.77700
Cd219      Cd  0.37814373  0.14080290  0.16461282     1.37500
O220        O  0.36246739  0.11821841  0.18428101    -0.57300
O221        O  0.33880369  0.15635884  0.16073772    -0.56100
C222        C  0.42821017  0.14540600  0.16476843     0.77600
O223        O  0.36672740  0.18129581  0.16010369    -0.58500
O224        O  0.37788433  0.15131943  0.18885471    -0.56900
O225        O  0.37748033  0.12953492  0.14028421    -0.56900
O226        O  0.41790402  0.12738510  0.16904178    -0.56100
O227        O  0.65744698  0.14232589  0.29798562    -0.57300
C228        C  0.64409269  0.13027551  0.33913620     0.75300
O229        O  0.70406094  0.09608861  0.32684296    -0.58500
C230        C  0.67222342  0.13482013  0.28940110     0.75300
C231        C  0.71280661  0.16517155  0.32236280     0.77700
Cd232      Cd  0.67958781  0.12896332  0.31840519     1.37500
O233        O  0.64055946  0.12131246  0.32749699    -0.57300
O234        O  0.69233694  0.16935027  0.31816784    -0.56100
C235        C  0.69157037  0.08082515  0.32100826     0.77600
O236        O  0.71773798  0.14416061  0.32515686    -0.58500
O237        O  0.66341724  0.14037529  0.34084407    -0.56900
O238        O  0.69006752  0.12506499  0.29441348    -0.56900
O239        O  0.67456186  0.08823272  0.31404793    -0.56100
O240        O  0.65258092  0.84271721  0.33278882    -0.57300
C241        C  0.68242163  0.85288020  0.29287256     0.75300
O242        O  0.71157977  0.89346183  0.32556313    -0.58500
C243        C  0.65718266  0.85065465  0.34463266     0.75300
C244        C  0.72448663  0.82277946  0.32829189     0.77700
Cd245      Cd  0.68933193  0.85696686  0.32224675     1.37500
O246        O  0.66608145  0.84813719  0.30116474    -0.57300
O247        O  0.70345154  0.81717426  0.32625963    -0.56100
C248        C  0.69394432  0.90658899  0.32419668     0.77600
O249        O  0.72908088  0.84433469  0.32801140    -0.58500
O250        O  0.70158380  0.85856778  0.29825362    -0.56900
O251        O  0.67663546  0.86069628  0.34600087    -0.56900
O252        O  0.67475960  0.89661014  0.32178751    -0.56100
O253        O  0.37241033  0.83615993  0.18635795    -0.57300
C254        C  0.37981443  0.84626499  0.14377989     0.75300
O255        O  0.42216670  0.78915464  0.16336017    -0.58500
C256        C  0.38126304  0.82259123  0.19520901     0.75300
C257        C  0.35257758  0.77771703  0.16157385     0.77700
Cd258      Cd  0.38690864  0.81372455  0.16616507     1.37500
O259        O  0.38051502  0.85333815  0.15608133    -0.57300
O260        O  0.34733772  0.79739972  0.16651464    -0.56100
C261        C  0.43645802  0.80587929  0.16417912     0.77600
O262        O  0.37381893  0.77469402  0.15854074    -0.58500
O263        O  0.38169825  0.82453159  0.14211154    -0.56900
O264        O  0.39249012  0.80544110  0.19051538    -0.56900
O265        O  0.42775633  0.82594504  0.16579070    -0.56100
O266        O  0.67649047  0.84970495  0.15098990    -0.57300
C267        C  0.66956025  0.82676648  0.19101602     0.75300
O268        O  0.62530243  0.79183768  0.15710560    -0.58500
C269        C  0.66311339  0.84829082  0.14069397     0.75300
C270        C  0.69268722  0.77867215  0.15552890     0.77700
Cd271      Cd  0.66027232  0.81504355  0.16268712     1.37500
O272        O  0.66592231  0.84248160  0.18215384    -0.57300
O273        O  0.69786553  0.79995578  0.15414451    -0.56100
C274        C  0.61118945  0.80535293  0.16311129     0.77600
O275        O  0.67244689  0.77437806  0.15999135    -0.58500
O276        O  0.66970222  0.80608865  0.18661013    -0.56900
O277        O  0.64873503  0.83163026  0.14074285    -0.56900
O278        O  0.62003832  0.82275312  0.16911337    -0.56100
O279        O  0.37134568  0.11926715  0.33433285    -0.57300
C280        C  0.34188894  0.11561571  0.29537906     0.75300
O281        O  0.31084778  0.07428551  0.33189006    -0.58500
C282        C  0.36575477  0.11414972  0.34654050     0.75300
C283        C  0.29908071  0.14626796  0.32819235     0.77700
Cd284      Cd  0.33258259  0.10946165  0.32427267     1.37500
O285        O  0.35798931  0.11725768  0.30423424    -0.57300
O286        O  0.32074397  0.15010694  0.32776300    -0.56100
C287        C  0.32304917  0.06021474  0.32491587     0.77600
O288        O  0.29285218  0.12515484  0.32727582    -0.58500
O289        O  0.32169667  0.11166720  0.30001567    -0.56900
O290        O  0.34518197  0.10692090  0.34822272    -0.56900
O291        O  0.33925946  0.06901033  0.31787102    -0.56100
O292        O  0.36683243  0.83423515  0.30559327    -0.57300
C293        C  0.37271501  0.82559172  0.34679967     0.75300
O294        O  0.31416491  0.87165685  0.32847393    -0.58500
C295        C  0.35094675  0.83574414  0.29662310     0.75300
C296        C  0.30646150  0.80138145  0.32718626     0.77700
Cd297      Cd  0.34032973  0.83750764  0.32533320     1.37500
O298        O  0.37880442  0.82593508  0.33434680    -0.57300
O299        O  0.32590643  0.79840071  0.32137203    -0.56100
C300        C  0.33052068  0.88641808  0.32872688     0.77600
O301        O  0.30307892  0.82097119  0.33283099    -0.58500
O302        O  0.35150327  0.83003403  0.34915714    -0.56900
O303        O  0.33032725  0.83792351  0.30098361    -0.56900
O304        O  0.35090449  0.87843459  0.32746144    -0.56100
O305        O  0.88747326  0.60846099  0.82967461    -0.57300
C306        C  0.85869235  0.60739109  0.79077552     0.75300
O307        O  0.82526787  0.56637734  0.82626697    -0.58500
C308        C  0.88205618  0.60185987  0.84164388     0.75300
C309        C  0.81539616  0.63801929  0.82416270     0.77700
Cd310      Cd  0.84844349  0.60082683  0.81943693     1.37500
O311        O  0.87435815  0.61009486  0.79980070    -0.57300
O312        O  0.83709772  0.64166518  0.82368860    -0.56100
C313        C  0.83753035  0.55201450  0.81956010     0.77600
O314        O  0.80894496  0.61709318  0.82265814    -0.58500
O315        O  0.83866060  0.60206037  0.79515620    -0.56900
O316        O  0.86121950  0.59527014  0.84324418    -0.56900
O317        O  0.85413537  0.56046643  0.81266804    -0.56100
O318        O  0.88105504  0.31805593  0.79717509    -0.57300
C319        C  0.89542747  0.32671258  0.83835560     0.75300
O320        O  0.83279827  0.36315045  0.82273839    -0.58500
C321        C  0.86758901  0.32805401  0.78873590     0.75300
C322        C  0.82543322  0.29490822  0.82151315     0.77700
Cd323      Cd  0.85962669  0.33078784  0.81789161     1.37500
O324        O  0.90015015  0.32934467  0.82579748    -0.57300
O325        O  0.84559498  0.29058014  0.81693528    -0.56100
C326        C  0.84800586  0.37886403  0.82117727     0.77600
O327        O  0.82148134  0.31570474  0.82514315    -0.58500
O328        O  0.87416360  0.32415967  0.84138631    -0.56900
O329        O  0.85071440  0.33920058  0.79386468    -0.56900
O330        O  0.86847342  0.37211137  0.81852163    -0.56100
O331        O  0.16359528  0.63143269  0.80202724    -0.57300
C332        C  0.15264222  0.62213601  0.84308877     0.75300
O333        O  0.21419872  0.58324741  0.82213337    -0.58500
C334        C  0.17673364  0.62280629  0.79292670     0.75300
C335        C  0.22043719  0.65519616  0.82612699     0.77700
Cd336      Cd  0.18746139  0.61783668  0.82171482     1.37500
O337        O  0.14737013  0.62260429  0.83050287    -0.57300
O338        O  0.20107391  0.65813579  0.82022915    -0.56100
C339        C  0.19785287  0.56842479  0.82219569     0.77600
O340        O  0.22448796  0.63477832  0.83048952    -0.58500
O341        O  0.17417587  0.62040769  0.84574448    -0.56900
O342        O  0.19457075  0.61216481  0.79726975    -0.56900
O343        O  0.17743100  0.57667551  0.82248673    -0.56100
O344        O  0.15364601  0.33480780  0.82472858    -0.57300
C345        C  0.18408068  0.33510319  0.78582931     0.75300
O346        O  0.21480507  0.37913702  0.82101426    -0.58500
C347        C  0.16054660  0.33477447  0.83707309     0.75300
C348        C  0.22977082  0.31046117  0.82003438     0.77700
Cd349      Cd  0.19283483  0.34346778  0.81472589     1.37500
O350        O  0.16805401  0.33269359  0.79463077    -0.57300
O351        O  0.20854423  0.30449951  0.81991472    -0.56100
C352        C  0.19990989  0.39337505  0.81642010     0.77600
O353        O  0.23395149  0.33168490  0.81749197    -0.58500
O354        O  0.20385781  0.34054870  0.79051584    -0.56900
O355        O  0.18196649  0.33874810  0.83893091    -0.56900
O356        O  0.18186677  0.38447936  0.81115759    -0.56100
O357        O  0.16435479  0.32833215  0.67457148    -0.57300
C358        C  0.14451765  0.34262457  0.63609734     0.75300
O359        O  0.15939025  0.26465314  0.65283072    -0.58500
C360        C  0.15758523  0.31504729  0.68413214     0.75300
C361        C  0.09811378  0.28992705  0.65366397     0.77700
Cd362      Cd  0.14590183  0.30499270  0.65588114     1.37500
O363        O  0.15485227  0.32358606  0.63376970    -0.57300
O364        O  0.10529539  0.30273416  0.66332169    -0.56100
C365        C  0.18067972  0.26945452  0.65110863     0.77600
O366        O  0.11334710  0.28332535  0.64513792    -0.58500
O367        O  0.13549518  0.34472684  0.64785969    -0.56900
O368        O  0.14537906  0.29783778  0.68046009    -0.56900
O369        O  0.18571807  0.29091543  0.65074266    -0.56100
O370        O  0.86951730  0.31972953  0.67815725    -0.57300
C371        C  0.86708841  0.32905632  0.63644691     0.75300
O372        O  0.90967842  0.26919006  0.65350007    -0.58500
C373        C  0.87465567  0.30385243  0.68666759     0.75300
C374        C  0.83755744  0.26318598  0.65328426     0.77700
Cd375      Cd  0.87565726  0.29522743  0.65755430     1.37500
O376        O  0.86975838  0.30761037  0.63407133    -0.57300
O377        O  0.83473985  0.28295910  0.65873103    -0.56100
C378        C  0.92444123  0.28554170  0.65303588     0.77600
O379        O  0.85820450  0.25825210  0.64971538    -0.58500
O380        O  0.86767677  0.33502074  0.64895063    -0.56900
O381        O  0.88021808  0.28436791  0.68161521    -0.56900
O382        O  0.91643006  0.30590312  0.65451512    -0.56100
O383        O  0.87230071  0.60566240  0.65064384    -0.57300
C384        C  0.87585717  0.63287981  0.68883072     0.75300
O385        O  0.90881720  0.67489815  0.65952372    -0.58500
C386        C  0.87272435  0.61173847  0.63816048     0.75300
C387        C  0.83716414  0.67644083  0.65604597     0.77700
Cd388      Cd  0.87669991  0.64565400  0.65996754     1.37500
O389        O  0.86848700  0.61923768  0.67963406    -0.57300
O390        O  0.83471636  0.65534502  0.65942249    -0.56100
C391        C  0.92402150  0.66075573  0.65515003     0.77600
O392        O  0.85792396  0.68319574  0.65430661    -0.58500
O393        O  0.88403148  0.65198451  0.68457112    -0.56900
O394        O  0.87437253  0.63340414  0.63590961    -0.56900
O395        O  0.91737931  0.64000997  0.65330905    -0.56100
O396        O  0.15340945  0.62068173  0.68245680    -0.57300
C397        C  0.15259212  0.61158081  0.64020326     0.75300
O398        O  0.11179100  0.67206945  0.65675232    -0.58500
C399        C  0.14995963  0.63705392  0.69094874     0.75300
C400        C  0.18176994  0.67729143  0.65760447     0.77700
Cd401      Cd  0.14446272  0.64485205  0.66189801     1.37500
O402        O  0.14701139  0.60486825  0.65213245    -0.57300
O403        O  0.18423390  0.65963776  0.66524883    -0.56100
C404        C  0.09589290  0.65703606  0.65821377     0.77600
O405        O  0.16198987  0.68004260  0.65207336    -0.58500
O406        O  0.15545040  0.63321016  0.63875185    -0.56900
O407        O  0.14317775  0.65624887  0.68598057    -0.56900
O408        O  0.10254889  0.63681545  0.66154805    -0.56100
C409        C  0.01972555  0.58473838  0.94025639     0.87000
C410        C  0.03947034  0.59274939  0.93067151    -0.53200
C411        C  0.03758570  0.58506959  0.91739409     0.09900
C412        C  0.01602501  0.56972669  0.91498567     0.20900
C413        C  0.99702866  0.59243771  0.93290586    -0.54000
C414        C  0.99543291  0.58476490  0.91962712     0.10000
C415        C  0.01917473  0.55795360  0.93874659    -0.53500
C416        C  0.01776368  0.55021551  0.92565073     0.10600
H417        H  0.05360540  0.60384006  0.93413796     0.15100
H418        H  0.01385495  0.56351852  0.90432034     0.00800
H419        H  0.98342905  0.60270530  0.93771395     0.15400
H420        H  0.01936089  0.54555421  0.94710576     0.15200
C421        C  0.02186579  0.60200668  0.04187189     0.87000
C422        C  0.00117025  0.61105408  0.05046740    -0.53200
C423        C  0.99917871  0.60084494  0.06306773     0.09900
C424        C  0.01885536  0.58357502  0.06634083     0.20900
C425        C  0.04312959  0.60711544  0.05121046    -0.54000
C426        C  0.04135698  0.59745266  0.06401624     0.10000
C427        C  0.01992762  0.57534877  0.04201762    -0.53500
C428        C  0.01820418  0.56565433  0.05469037     0.10600
H429        H  0.98920874  0.62443993  0.04695470     0.15100
H430        H  0.01762331  0.57582117  0.07674896     0.00800
H431        H  0.05770784  0.61812786  0.04846330     0.15400
H432        H  0.02065448  0.56492984  0.03273595     0.15200
C433        C  0.02827429  0.33847361  0.93789872     0.87000
C434        C  0.00859045  0.33199911  0.92784646    -0.53200
C435        C  0.01041122  0.34267853  0.91534115     0.09900
C436        C  0.03192048  0.35833988  0.91384831     0.20900
C437        C  0.05077472  0.33192437  0.92987408    -0.54000
C438        C  0.05249657  0.34248821  0.91736471     0.10000
C439        C  0.02814638  0.36522201  0.93818010    -0.53500
C440        C  0.03038457  0.37579473  0.92575083     0.10600
H441        H  0.99463450  0.31996080  0.93031470     0.15100
H442        H  0.03352959  0.36641827  0.90355483     0.00800
H443        H  0.06383107  0.31956466  0.93316907     0.15400
H444        H  0.02533596  0.37490888  0.94757321     0.15200
C445        C  0.02247850  0.35631277  0.03864187     0.87000
C446        C  0.04256149  0.34872883  0.04810163    -0.53200
C447        C  0.04150562  0.35773863  0.06107144     0.09900
C448        C  0.02020109  0.37340126  0.06343532     0.20900
C449        C  0.00001536  0.34977951  0.04644088    -0.54000
C450        C  0.99904668  0.35845250  0.05948948     0.10000
C451        C  0.02229987  0.38321754  0.03934985    -0.53500
C452        C  0.02170328  0.39209703  0.05226818     0.10600
H453        H  0.05653943  0.33732488  0.04473467     0.15100
H454        H  0.01896702  0.38053840  0.07396988     0.00800
H455        H  0.98617933  0.33924821  0.04213167     0.15400
H456        H  0.02157737  0.39459674  0.03048520     0.15200
C457        C  0.11837185  0.48366363  0.54023265     0.87000
C458        C  0.12904017  0.50434482  0.54796471    -0.53200
C459        C  0.12307034  0.50527664  0.56145009     0.09900
C460        C  0.10681517  0.48557600  0.56616740     0.20900
C461        C  0.12540502  0.46183062  0.54861972    -0.54000
C462        C  0.11946488  0.46301512  0.56222441     0.10000
C463        C  0.09188407  0.48527329  0.54299238    -0.53500
C464        C  0.08580969  0.48615928  0.55649792     0.10600
H465        H  0.14052546  0.51701444  0.54321457     0.15100
H466        H  0.10201682  0.48642607  0.57717822     0.00800
H467        H  0.13393761  0.44672685  0.54421808     0.15400
H468        H  0.07865201  0.48312330  0.53516680     0.15200
C469        C  0.12482954  0.48044452  0.43758463     0.87000
C470        C  0.13250962  0.45997303  0.42841206    -0.53200
C471        C  0.12282934  0.45996642  0.41555215     0.09900
C472        C  0.10688702  0.48110014  0.41290167     0.20900
C473        C  0.13163818  0.50208886  0.42895297    -0.54000
C474        C  0.12221214  0.50222499  0.41610703     0.10000
C475        C  0.09803437  0.48016151  0.43717971    -0.53500
C476        C  0.08856328  0.48025435  0.42436007     0.10600
H477        H  0.14480447  0.44678349  0.43178348     0.15100
H478        H  0.09955727  0.48194199  0.40240086     0.00800
H479        H  0.14361602  0.51565363  0.43209259     0.15400
H480        H  0.08741158  0.48007589  0.44638619     0.15200
C481        C  0.88082749  0.46962803  0.54107364     0.87000
C482        C  0.87231870  0.44905363  0.54971454    -0.53200
C483        C  0.87947345  0.44978423  0.56299664     0.09900
C484        C  0.89454781  0.47092288  0.56662064     0.20900
C485        C  0.87289734  0.49180163  0.54896740    -0.54000
C486        C  0.87998120  0.49224274  0.56245227     0.10000
C487        C  0.90756304  0.47013237  0.54310899    -0.53500
C488        C  0.91465501  0.47095591  0.55639719     0.10600
H489        H  0.86200355  0.43482635  0.54559725     0.15100
H490        H  0.90036442  0.47107960  0.57748581     0.00800
H491        H  0.86421450  0.50645554  0.54414882     0.15400
H492        H  0.92005774  0.47127966  0.53480494     0.15200
C493        C  0.87873901  0.47749225  0.43894915     0.87000
C494        C  0.86985234  0.49931182  0.43141023    -0.53200
C495        C  0.87891704  0.50198954  0.41858128     0.09900
C496        C  0.89575038  0.48252977  0.41425743     0.20900
C497        C  0.87234087  0.45757521  0.42890050    -0.54000
C498        C  0.88166800  0.45990599  0.41603798     0.10000
C499        C  0.90556943  0.47895331  0.43828890    -0.53500
C500        C  0.91435301  0.48180768  0.42543788     0.10600
H501        H  0.85756681  0.51159244  0.43581236     0.15100
H502        H  0.90331942  0.48507042  0.40390047     0.00800
H503        H  0.86012662  0.44386957  0.43116477     0.15400
H504        H  0.91669421  0.47771282  0.44727118     0.15200
O505        O  0.14033381  0.60865796  0.32502470    -0.57300
C506        C  0.14916624  0.63717802  0.28756041     0.75300
O507        O  0.11070158  0.67299924  0.32692628    -0.58500
C508        C  0.14262970  0.61404614  0.33752569     0.75300
C509        C  0.17915930  0.68222293  0.32081971     0.77700
Cd510      Cd  0.14191243  0.64942039  0.31618184     1.37500
O511        O  0.15308522  0.62270877  0.29709231    -0.57300
O512        O  0.18262816  0.66047236  0.32070606    -0.56100
C513        C  0.09462591  0.66565924  0.31922197     0.77600
O514        O  0.15847601  0.68872358  0.31847547    -0.58500
O515        O  0.14212781  0.65704386  0.29137417    -0.56900
O516        O  0.14531427  0.63549956  0.33993740    -0.56900
O517        O  0.10056722  0.65133966  0.31002762    -0.56100
O518        O  0.85903271  0.61840429  0.33387598    -0.57300
C519        C  0.86563049  0.64334090  0.29404351     0.75300
O520        O  0.86169282  0.69485546  0.32835055    -0.58500
C521        C  0.86499573  0.62407349  0.34592583     0.75300
C522        C  0.92208127  0.66476604  0.32372706     0.77700
Cd523      Cd  0.87281017  0.65487121  0.32279938     1.37500
O524        O  0.86671602  0.62763277  0.30312674    -0.57300
O525        O  0.91432656  0.64436671  0.32190147    -0.56100
C526        C  0.83994734  0.69164918  0.32770908     0.77600
O527        O  0.90695025  0.68056086  0.32513853    -0.58500
O528        O  0.86755160  0.66399487  0.29837415    -0.56900
O529        O  0.87427690  0.64389408  0.34715167    -0.56900
O530        O  0.83328248  0.67113840  0.32497799    -0.56100
O531        O  0.87119956  0.63130384  0.18327771    -0.57300
C532        C  0.88592983  0.62655494  0.14005153     0.75300
O533        O  0.82674947  0.58722546  0.15447844    -0.58500
C534        C  0.85613235  0.62197857  0.19105116     0.75300
C535        C  0.81680828  0.65612037  0.15692882     0.77700
Cd536      Cd  0.85120087  0.62056858  0.16132151     1.37500
O537        O  0.89162927  0.62500656  0.15257072    -0.57300
O538        O  0.83735778  0.66088340  0.16069870    -0.56100
C539        C  0.84296953  0.57241698  0.15580456     0.77600
O540        O  0.81240737  0.63478482  0.15488973    -0.58500
O541        O  0.86429808  0.62728380  0.13763276    -0.56900
O542        O  0.83934876  0.61218120  0.18500328    -0.56900
O543        O  0.86238659  0.57997295  0.15997023    -0.56100
O544        O  0.86050626  0.36056641  0.13247860    -0.57300
C545        C  0.84655790  0.34175920  0.18257126     0.75300
O546        O  0.82200631  0.38636237  0.14624563    -0.58500
C547        C  0.87739358  0.34655054  0.13349599     0.75300
C548        C  0.80333533  0.31913670  0.14573665     0.77700
Cd549      Cd  0.84056099  0.34994986  0.15360292     1.37500
O550        O  0.86291507  0.33827381  0.17411290    -0.57300
O551        O  0.82412123  0.31218869  0.14702007    -0.56100
C552        C  0.83461285  0.39924194  0.15373589     0.77600
O553        O  0.79992131  0.34066089  0.14764070    -0.58500
O554        O  0.82729372  0.34811130  0.17750488    -0.56900
O555        O  0.87737295  0.33344446  0.14394557    -0.56900
O556        O  0.84966773  0.38918653  0.16113814    -0.56100
O557        O  0.17525765  0.62986242  0.13946057    -0.57300
C558        C  0.18474694  0.61699890  0.18684329     0.75300
O559        O  0.21135348  0.57987847  0.14386773    -0.58500
C560        C  0.15930316  0.61467839  0.14001472     0.75300
C561        C  0.23334182  0.64976582  0.15369646     0.77700
Cd562      Cd  0.19910542  0.61314103  0.15840934     1.37500
O563        O  0.17058433  0.61973330  0.17705138    -0.57300
O564        O  0.21210824  0.65414244  0.15598552    -0.56100
C565        C  0.21431698  0.56584844  0.15372335     0.77600
O566        O  0.23875486  0.62838625  0.15320176    -0.58500
O567        O  0.20566034  0.61334440  0.18340140    -0.56900
O568        O  0.16142362  0.59945644  0.14929854    -0.56900
O569        O  0.21256284  0.57436102  0.16561682    -0.56100
O570        O  0.15388045  0.33417642  0.14770223    -0.57300
C571        C  0.18117194  0.34202465  0.18612166     0.75300
O572        O  0.23137677  0.32708339  0.15109623    -0.58500
C573        C  0.16028948  0.33404162  0.13530535     0.75300
C574        C  0.20303765  0.39208120  0.15418423     0.77700
Cd575      Cd  0.19276446  0.34331847  0.15741423     1.37500
O576        O  0.16963124  0.33055289  0.17735227    -0.57300
O577        O  0.18267569  0.38468397  0.15660416    -0.56100
C578        C  0.22821852  0.30787434  0.15719544     0.77600
O579        O  0.21871835  0.37669235  0.15300400    -0.58500
O580        O  0.19734300  0.35476383  0.18152380    -0.56900
O581        O  0.18178920  0.33725608  0.13323270    -0.56900
O582        O  0.20863969  0.30506160  0.16282813    -0.56100
O583        O  0.86512231  0.35382664  0.32440141    -0.57300
C584        C  0.86859121  0.32497206  0.28470434     0.75300
O585        O  0.91315878  0.29389576  0.31729085    -0.58500
C586        C  0.87273332  0.34838466  0.33618039     0.75300
C587        C  0.84114468  0.28308628  0.31836351     0.77700
Cd588      Cd  0.87700509  0.31677312  0.31341547     1.37500
O589        O  0.86745447  0.34149060  0.29330249    -0.57300
O590        O  0.83679304  0.30465499  0.31759187    -0.56100
C591        C  0.92668520  0.31010187  0.31348774     0.77600
O592        O  0.86237994  0.27720018  0.31759374    -0.58500
O593        O  0.87349899  0.30509297  0.28947915    -0.56900
O594        O  0.88177294  0.32837574  0.33737615    -0.56900
O595        O  0.91709740  0.32882673  0.30959940    -0.56100
O596        O  0.15961226  0.35386659  0.32656905    -0.57300
C597        C  0.15913320  0.32498140  0.28791077     0.75300
O598        O  0.16302415  0.27568686  0.32429162    -0.58500
C599        C  0.15567394  0.34771459  0.33879817     0.75300
C600        C  0.10161562  0.30919217  0.31513374     0.77700
Cd601      Cd  0.15123543  0.31499108  0.31631858     1.37500
O602        O  0.16988067  0.33616431  0.29718021    -0.57300
O603        O  0.11172503  0.32663150  0.30993799    -0.56100
C604        C  0.18376196  0.27723210  0.31999832     0.77600
O605        O  0.11440621  0.29418577  0.32099009    -0.58500
O606        O  0.14501814  0.30945444  0.29188375    -0.56900
O607        O  0.15093527  0.32643340  0.34047265    -0.56900
O608        O  0.18935067  0.29610822  0.31423093    -0.56100
C609        C  0.95237551  0.30801607  0.31384746    -0.11500
C610        C  0.96421181  0.28669461  0.31180582     0.04000
C611        C  0.98863093  0.28615148  0.31206526    -0.12000
C612        C  0.00148082  0.30651775  0.31442246     0.18900
C613        C  0.98974848  0.32770555  0.31647371    -0.09000
C614        C  0.96545458  0.32834060  0.31612261    -0.02000
H615        H  0.99764657  0.26982442  0.31036339     0.05400
C616        C  0.02714800  0.30557907  0.31459282     0.20800
H617        H  0.95673118  0.34485994  0.31775736     0.10600
C618        C  0.03939677  0.30808990  0.30226271    -0.15400
C619        C  0.06375173  0.30898032  0.30221266     0.03600
C620        C  0.07613282  0.30688474  0.31463322    -0.10700
C621        C  0.06386299  0.30377737  0.32691135    -0.00700
C622        C  0.03950820  0.30343217  0.32698416    -0.05900
H623        H  0.02994979  0.30981061  0.29269388     0.06600
H624        H  0.07323131  0.30245060  0.33652753     0.10000
Br625      Br  0.00626661  0.35620687  0.31976981    -0.05600
Br626      Br  0.94825827  0.25811561  0.30782632    -0.02500
Br627      Br  0.07930329  0.31249491  0.28493081     0.00300
Br628      Br  0.02376458  0.30098206  0.34424587    -0.04100
C629        C  0.17636881  0.34062741  0.20098139    -0.11500
C630        C  0.16973987  0.31955589  0.20733241     0.04000
C631        C  0.16646924  0.31878906  0.22152266    -0.12000
C632        C  0.16948724  0.33874687  0.22961179     0.18900
C633        C  0.17592980  0.35982855  0.22330436    -0.09000
C634        C  0.17949135  0.36058915  0.20911841    -0.02000
H635        H  0.16184931  0.30241440  0.22632725     0.05400
C636        C  0.16648184  0.33685520  0.24463354     0.20800
H637        H  0.18453451  0.37691358  0.20440726     0.10600
C638        C  0.18596037  0.33907363  0.25324437    -0.15400
C639        C  0.18400187  0.33571259  0.26741962     0.03600
C640        C  0.16222945  0.32981398  0.27315372    -0.10700
C641        C  0.14277777  0.32776151  0.26450142    -0.00700
C642        C  0.14470168  0.33139838  0.25039649    -0.05900
H643        H  0.20286291  0.34291962  0.24886655     0.06600
H644        H  0.12590044  0.32344593  0.26874642     0.10000
Br645      Br  0.17931985  0.38811016  0.23358310    -0.05600
Br646      Br  0.16656670  0.29083573  0.19743451    -0.02500
Br647      Br  0.21193152  0.33760268  0.27818735     0.00300
Br648      Br  0.11697372  0.32926847  0.23947103    -0.04100
C649        C  0.20792842  0.41742041  0.15322248    -0.11500
C650        C  0.22877112  0.42658097  0.14761901     0.04000
C651        C  0.23225807  0.45074682  0.14725520    -0.12000
C652        C  0.21535944  0.46603802  0.15237109     0.18900
C653        C  0.19470598  0.45702580  0.15796838    -0.09000
C654        C  0.19111776  0.43300081  0.15832708    -0.02000
H655        H  0.24811513  0.45767475  0.14283642     0.05400
C656        C  0.21887965  0.49144564  0.15145146     0.20800
H657        H  0.17509748  0.42651160  0.16277020     0.10600
C658        C  0.20749844  0.50380123  0.14103847    -0.15400
C659        C  0.20696408  0.52815609  0.14108983     0.03600
C660        C  0.21820748  0.54058367  0.15171321    -0.10700
C661        C  0.23062129  0.52807136  0.16174502    -0.00700
C662        C  0.23105394  0.50368891  0.16165943    -0.05900
H663        H  0.19787309  0.49439378  0.13324863     0.06600
H664        H  0.23924617  0.53727128  0.17001024     0.10000
Br665      Br  0.17100100  0.47695067  0.16540928    -0.05600
Br666      Br  0.25281112  0.40750759  0.13978036    -0.02500
Br667      Br  0.18796208  0.54295361  0.12740147     0.00300
Br668      Br  0.24694846  0.48775360  0.17620775    -0.04100
C669        C  0.84949257  0.33881276  0.19757714    -0.11500
C670        C  0.87146767  0.34040260  0.20406550     0.04000
C671        C  0.87314091  0.33801727  0.21829661    -0.12000
C672        C  0.85329783  0.33425885  0.22635057     0.18900
C673        C  0.83129823  0.33324329  0.21998749    -0.09000
C674        C  0.82957595  0.33536803  0.20573469    -0.02000
H675        H  0.89007562  0.33927777  0.22315275     0.05400
C676        C  0.85610580  0.33203334  0.24137645     0.20800
H677        H  0.81249974  0.33449176  0.20102709     0.10600
C678        C  0.86453642  0.35110075  0.24888261    -0.15400
C679        C  0.86875888  0.34932099  0.26298261     0.03600
C680        C  0.86416243  0.32817891  0.26986712    -0.10700
C681        C  0.85593326  0.30906358  0.26226591    -0.00700
C682        C  0.85215223  0.31075363  0.24814916    -0.05900
H683        H  0.86832323  0.36732433  0.24366770     0.06600
H684        H  0.85270897  0.29255139  0.26729327     0.10000
Br685      Br  0.80304478  0.33012780  0.23034540    -0.05600
Br686      Br  0.89973863  0.34738767  0.19439703    -0.02500
Br687      Br  0.88279541  0.37562696  0.27187978     0.00300
Br688      Br  0.84322327  0.28306337  0.23845212    -0.04100
C689        C  0.83937032  0.54747760  0.15307398    -0.11500
C690        C  0.85758186  0.53320030  0.14815005     0.04000
C691        C  0.85432536  0.50917148  0.14724561    -0.12000
C692        C  0.83318099  0.49908079  0.15116314     0.18900
C693        C  0.81465708  0.51330855  0.15547495    -0.09000
C694        C  0.81776186  0.53741031  0.15626904    -0.02000
H695        H  0.86854885  0.49821249  0.14381090     0.05400
C696        C  0.83161476  0.47357623  0.15179392     0.20800
H697        H  0.80360169  0.54816343  0.15998220     0.10600
C698        C  0.83524835  0.46258663  0.16442567    -0.15400
C699        C  0.83590749  0.43834028  0.16535535     0.03600
C700        C  0.83247065  0.42475295  0.15347885    -0.10700
C701        C  0.82815986  0.43584768  0.14089961    -0.00700
C702        C  0.82810332  0.46012823  0.13995321    -0.05900
H703        H  0.83807580  0.47297045  0.17355247     0.06600
H704        H  0.82574917  0.42561059  0.13167743     0.10000
Br705      Br  0.78523684  0.50040323  0.16083319    -0.05600
Br706      Br  0.88710766  0.54537778  0.14227050    -0.02500
Br707      Br  0.84112866  0.42493403  0.18313809     0.00300
Br708      Br  0.82399276  0.47423051  0.12229706    -0.04100
C709        C  0.86259786  0.63843714  0.27913784    -0.11500
C710        C  0.86524678  0.61599178  0.27329774     0.04000
C711        C  0.86418287  0.61318692  0.25901821    -0.12000
C712        C  0.86017023  0.63224354  0.25031160     0.18900
C713        C  0.85598065  0.65427209  0.25615767    -0.09000
C714        C  0.85754791  0.65724763  0.27035301    -0.02000
H715        H  0.86682006  0.59603860  0.25465143     0.05400
C716        C  0.86004222  0.62874625  0.23520898     0.20800
H717        H  0.85470360  0.67449674  0.27452677     0.10600
C718        C  0.84328010  0.61413378  0.22930665    -0.15400
C719        C  0.84220075  0.61084934  0.21508285     0.03600
C720        C  0.85775650  0.62301100  0.20632408    -0.10700
C721        C  0.87515732  0.63686720  0.21238311    -0.00700
C722        C  0.87667753  0.63939135  0.22664283    -0.05900
H723        H  0.83093469  0.60516403  0.23583643     0.06600
H724        H  0.88778568  0.64575816  0.20602039     0.10000
Br725      Br  0.84709607  0.68070059  0.24526833    -0.05600
Br726      Br  0.87080781  0.58840987  0.28395412    -0.02500
Br727      Br  0.81968699  0.58861050  0.20867004     0.00300
Br728      Br  0.90259631  0.65643018  0.23398125    -0.04100
C729        C  0.15279033  0.63181738  0.27274565    -0.11500
C730        C  0.15780375  0.60918507  0.26770584     0.04000
C731        C  0.16171282  0.60576560  0.25364783    -0.12000
C732        C  0.16083225  0.62445498  0.24440305     0.18900
C733        C  0.15546263  0.64682611  0.24931390    -0.09000
C734        C  0.15143386  0.65031738  0.26328764    -0.02000
H735        H  0.16577686  0.58846119  0.24991191     0.05400
C736        C  0.16661612  0.62072387  0.22977124     0.20800
H737        H  0.14766884  0.66782382  0.26677657     0.10600
C738        C  0.14901182  0.62209757  0.21983748    -0.15400
C739        C  0.15423644  0.62066240  0.20582718     0.03600
C740        C  0.17767298  0.61791862  0.20152267    -0.10700
C741        C  0.19510887  0.61587983  0.21161889    -0.00700
C742        C  0.18976770  0.61723360  0.22557347    -0.05900
H743        H  0.13111541  0.62466063  0.22302023     0.06600
H744        H  0.21315095  0.61355018  0.20868735     0.10000
Br745      Br  0.15464195  0.67342614  0.23739389    -0.05600
Br746      Br  0.15957104  0.58206399  0.27918569    -0.02500
Br747      Br  0.12832809  0.62262845  0.19339668     0.00300
Br748      Br  0.21485754  0.61532758  0.23853304    -0.04100
C749        C  0.07008869  0.67287972  0.32078978    -0.11500
C750        C  0.05976422  0.67662921  0.33375406     0.04000
C751        C  0.03557819  0.67937036  0.33473157    -0.12000
C752        C  0.02155794  0.67863423  0.32297673     0.18900
C753        C  0.03201087  0.67672755  0.31001561    -0.09000
C754        C  0.05606845  0.67377426  0.30900902    -0.02000
H755        H  0.02753324  0.68069613  0.34474690     0.05400
C756        C  0.99617433  0.67588677  0.32441177     0.20800
H757        H  0.06375200  0.67125337  0.29897350     0.10600
C758        C  0.98132622  0.69492558  0.32234573    -0.15400
C759        C  0.95709127  0.69197303  0.32225744     0.03600
C760        C  0.94745260  0.66949820  0.32427814    -0.10700
C761        C  0.96257757  0.65064348  0.32661354    -0.00700
C762        C  0.98667027  0.65367824  0.32667997    -0.05900
H763        H  0.98864955  0.71199754  0.32041327     0.06600
H764        H  0.95567564  0.63330158  0.32824950     0.10000
Br765      Br  0.01385185  0.67598772  0.29350727    -0.05600
Br766      Br  0.07711082  0.67545278  0.35057442    -0.02500
Br767      Br  0.93861680  0.71912612  0.31842213     0.00300
Br768      Br  0.00605267  0.62673864  0.32924229    -0.04100
C769        C  0.87773017  0.44314463  0.40453457    -0.11500
C770        C  0.87703185  0.41866148  0.40643275     0.04000
C771        C  0.87444492  0.40392762  0.39511841    -0.12000
C772        C  0.87372334  0.41278949  0.38174850     0.18900
C773        C  0.87441732  0.43705485  0.37977291    -0.09000
C774        C  0.87591801  0.45194220  0.39109407    -0.02000
H775        H  0.87405799  0.38524311  0.39671009     0.05400
C776        C  0.87342345  0.39631262  0.37005261     0.20800
H777        H  0.87606201  0.47054572  0.38927452     0.10600
C778        C  0.85391045  0.39535414  0.36138129    -0.15400
C779        C  0.85309702  0.37966055  0.35038365     0.03600
C780        C  0.87212438  0.36468961  0.34789082    -0.10700
C781        C  0.89137892  0.36534648  0.35675665    -0.00700
C782        C  0.89219202  0.38097448  0.36771977    -0.05900
H783        H  0.83913155  0.40664459  0.36330135     0.06600
H784        H  0.90611432  0.35393168  0.35499481     0.10000
Br785      Br  0.87513050  0.45065661  0.36180699    -0.05600
Br786      Br  0.88214323  0.40351944  0.42373681    -0.02500
Br787      Br  0.82494198  0.37810386  0.33981439     0.00300
Br788      Br  0.91972147  0.38117899  0.37891930    -0.04100
C789        C  0.87341212  0.52188886  0.40959392    -0.11500
C790        C  0.85111814  0.52495042  0.40384955     0.04000
C791        C  0.84726465  0.54293057  0.39439974    -0.12000
C792        C  0.86546350  0.55789624  0.39052307     0.18900
C793        C  0.88750999  0.55530507  0.39675730    -0.09000
C794        C  0.89134474  0.53724674  0.40608438    -0.02000
H795        H  0.83023618  0.54481371  0.38974568     0.05400
C796        C  0.86184424  0.57508355  0.37937155     0.20800
H797        H  0.90853766  0.53493421  0.41045618     0.10600
C798        C  0.86427513  0.59891033  0.38214992    -0.15400
C799        C  0.86444522  0.61536306  0.37155263     0.03600
C800        C  0.86209731  0.60799409  0.35775987    -0.10700
C801        C  0.85801604  0.58425383  0.35515194    -0.00700
C802        C  0.85781340  0.56788208  0.36577467    -0.05900
H803        H  0.86676656  0.60466661  0.39262695     0.06600
H804        H  0.85581864  0.57817269  0.34472265     0.10000
Br805      Br  0.91341524  0.57507815  0.39239099    -0.05600
Br806      Br  0.82602260  0.50395222  0.40779480    -0.02500
Br807      Br  0.86779873  0.64741604  0.37685418     0.00300
Br808      Br  0.85342086  0.53573686  0.36099444    -0.04100
C809        C  0.87043578  0.47552477  0.45393031    -0.11500
C810        C  0.87536559  0.49355519  0.46350291     0.04000
C811        C  0.87140518  0.49020151  0.47748597    -0.12000
C812        C  0.86266784  0.46917220  0.48247891     0.18900
C813        C  0.85622592  0.45170762  0.47315515    -0.09000
C814        C  0.86003761  0.45491537  0.45907352    -0.02000
H815        H  0.87650586  0.50368933  0.48464716     0.05400
C816        C  0.86442139  0.46491021  0.49739806     0.20800
H817        H  0.85584584  0.44049603  0.45251733     0.10600
C818        C  0.84768299  0.47391127  0.50642303    -0.15400
C819        C  0.85171949  0.47425097  0.52064814     0.03600
C820        C  0.87362914  0.46708825  0.52593885    -0.10700
C821        C  0.88873755  0.45523572  0.51685767    -0.00700
C822        C  0.88455957  0.45453544  0.50279533    -0.05900
H823        H  0.83156850  0.48091999  0.50237697     0.06600
H824        H  0.90420628  0.44653957  0.52055309     0.10000
Br825      Br  0.84345516  0.42266638  0.47930905    -0.05600
Br826      Br  0.88934557  0.52282044  0.45868955    -0.02500
Br827      Br  0.82594030  0.48281243  0.53207768     0.00300
Br828      Br  0.90769402  0.44039888  0.49125724    -0.04100
C829        C  0.12892810  0.44239422  0.40486900    -0.11500
C830        C  0.11230969  0.43350354  0.39549602    -0.05600
C831        C  0.11930205  0.41810883  0.38519341    -0.12000
C832        C  0.14245422  0.41071042  0.38418326     0.18900
C833        C  0.15889054  0.41869214  0.39373989    -0.09000
C834        C  0.15214618  0.43455480  0.40387847    -0.02000
H835        H  0.10648099  0.41149061  0.37803073     0.05400
C836        C  0.14877167  0.39436349  0.37313357     0.20800
H837        H  0.16525389  0.44097963  0.41090112     0.10600
C838        C  0.15629547  0.40316561  0.36050655    -0.15400
C839        C  0.15958958  0.38840591  0.34923380     0.03600
C840        C  0.15539757  0.36418104  0.35057935    -0.10700
C841        C  0.14883525  0.35546664  0.36352062    -0.00700
C842        C  0.14530927  0.37031746  0.37466120    -0.05900
H843        H  0.15887494  0.42174690  0.35930299     0.06600
H844        H  0.14552594  0.33705323  0.36492280     0.10000
Br845      Br  0.19055883  0.40807067  0.39340489    -0.05600
Br846      Br  0.07948451  0.43957084  0.39665228    -0.02500
Br847      Br  0.16887482  0.40295962  0.33238191     0.00300
Br848      Br  0.13461308  0.35719311  0.39161159    -0.04100
C849        C  0.12770585  0.51990751  0.40558779    -0.11500
C850        C  0.14880125  0.51923769  0.39821981     0.04000
C851        C  0.15237524  0.53464080  0.38727268    -0.12000
C852        C  0.13512485  0.55078803  0.38356926     0.18900
C853        C  0.11421618  0.55165889  0.39107959    -0.09000
C854        C  0.11063963  0.53625576  0.40198518    -0.02000
H855        H  0.16849046  0.53383304  0.38152603     0.05400
C856        C  0.13883022  0.56631743  0.37167735     0.20800
H857        H  0.09437045  0.53687226  0.40757821     0.10600
C858        C  0.13254429  0.55865218  0.35855778    -0.15400
C859        C  0.13381549  0.57360103  0.34721246     0.03600
C860        C  0.14201152  0.59671108  0.34888940    -0.10700
C861        C  0.14876918  0.60401969  0.36209242    -0.00700
C862        C  0.14706029  0.58914897  0.37340338    -0.05900
H863        H  0.12585078  0.54115653  0.35722726     0.06600
H864        H  0.15500396  0.62159661  0.36373302     0.10000
Br865      Br  0.08988273  0.57324378  0.38653439    -0.05600
Br866      Br  0.17271020  0.49694726  0.40236674    -0.02500
Br867      Br  0.12237306  0.56159286  0.33012126     0.00300
Br868      Br  0.15523442  0.60099335  0.39114501    -0.04100
C869        C  0.06296248  0.47972378  0.42189597    -0.11500
C870        C  0.04843727  0.46312433  0.42830179     0.04000
C871        C  0.02432243  0.46416956  0.42653715    -0.12000
C872        C  0.01405977  0.48130240  0.41828990     0.18900
C873        C  0.02850310  0.49730096  0.41137973    -0.09000
C874        C  0.05276167  0.49629713  0.41314450    -0.02000
H875        H  0.01340671  0.45165630  0.43181680     0.05400
C876        C  0.98826506  0.48294039  0.41808155     0.20800
H877        H  0.06362026  0.50885565  0.40789960     0.10600
C878        C  0.97749243  0.50167645  0.42479167    -0.15400
C879        C  0.95340111  0.50186567  0.42700566     0.03600
C880        C  0.93963559  0.48307724  0.42247519    -0.10700
C881        C  0.95019039  0.46492626  0.41512553    -0.00700
C882        C  0.97433575  0.46464444  0.41299648    -0.05900
H883        H  0.98799473  0.51581596  0.42877597     0.06600
H884        H  0.93970201  0.45057183  0.41139730     0.10000
Br885      Br  0.01590892  0.52061018  0.39939820    -0.05600
Br886      Br  0.06026057  0.43771881  0.43897058    -0.02500
Br887      Br  0.94018268  0.52825140  0.43615692     0.00300
Br888      Br  0.98759604  0.43879351  0.40328036    -0.04100
C889        C  0.06144273  0.48167428  0.56089316    -0.11500
C890        C  0.04937331  0.49627129  0.57010211     0.04000
C891        C  0.02539788  0.49336120  0.57201276    -0.12000
C892        C  0.01330234  0.47568364  0.56515981     0.18900
C893        C  0.02563486  0.45990057  0.55687166    -0.09000
C894        C  0.04948129  0.46295214  0.55483548    -0.02000
H895        H  0.01594537  0.50553697  0.57842315     0.05400
C896        C  0.98765880  0.47619314  0.56491606     0.20800
H897        H  0.05857787  0.45112425  0.54803564     0.10600
C898        C  0.97671972  0.49319656  0.55686929    -0.15400
C899        C  0.95274988  0.49247001  0.55455861     0.03600
C900        C  0.93935971  0.47431732  0.56028944    -0.10700
C901        C  0.95005079  0.45856632  0.56932801    -0.00700
C902        C  0.97411183  0.45925854  0.57158399    -0.05900
H903        H  0.98701962  0.50666472  0.55199229     0.06600
H904        H  0.93997684  0.44519871  0.57424865     0.10000
Br905      Br  0.01036249  0.43519777  0.54712805    -0.05600
Br906      Br  0.06384953  0.52146348  0.57960402    -0.02500
Br907      Br  0.93925848  0.51705664  0.54379256     0.00300
Br908      Br  0.98785899  0.43640190  0.58344072    -0.04100
C909        C  0.12517390  0.48355243  0.52494030    -0.11500
C910        C  0.14744093  0.47629326  0.52014817     0.04000
C911        C  0.15206484  0.47532815  0.50598925    -0.12000
C912        C  0.13541066  0.48273581  0.49642198     0.18900
C913        C  0.11426861  0.49197698  0.50112710    -0.09000
C914        C  0.10950396  0.49267410  0.51511894    -0.02000
H915        H  0.16876645  0.46898937  0.50243822     0.05400
C916        C  0.13940785  0.48032186  0.48149973     0.20800
H917        H  0.09346404  0.50101339  0.51811521     0.10600
C918        C  0.13184283  0.46000831  0.47503381    -0.15400
C919        C  0.12886005  0.45911725  0.46081013     0.03600
C920        C  0.13350940  0.47906523  0.45254707    -0.10700
C921        C  0.14321559  0.49872699  0.45917692    -0.00700
C922        C  0.14611176  0.49942185  0.47343952    -0.05900
H923        H  0.12665131  0.44519088  0.48121670     0.06600
H924        H  0.14723347  0.51450088  0.45364168     0.10000
Br925      Br  0.09104903  0.50375067  0.48872225    -0.05600
Br926      Br  0.17290988  0.46883627  0.53216033    -0.02500
Br927      Br  0.11651344  0.43034067  0.45389985     0.00300
Br928      Br  0.15731599  0.52758834  0.48169947    -0.04100
C929        C  0.05892305  0.35218433  0.07192089    -0.11500
C930        C  0.06823473  0.36942726  0.08072252     0.04000
C931        C  0.08448636  0.36325885  0.09073187    -0.12000
C932        C  0.09233092  0.34028989  0.09205451     0.18900
C933        C  0.08315255  0.32300599  0.08339967    -0.09000
C934        C  0.06651863  0.32899984  0.07348280    -0.02000
H935        H  0.09165784  0.37666688  0.09731368     0.05400
C936        C  0.11072242  0.33531295  0.10226425     0.20800
H937        H  0.05955242  0.31546674  0.06692835     0.10600
C938        C  0.10502889  0.32369407  0.11444547    -0.15400
C939        C  0.12117994  0.32200180  0.12519083     0.03600
C940        C  0.14357884  0.33198042  0.12375558    -0.10700
C941        C  0.14957747  0.34230932  0.11118059    -0.00700
C942        C  0.13332727  0.34430513  0.10058554    -0.05900
H943        H  0.08765765  0.31669515  0.11579311     0.06600
H944        H  0.16662316  0.35003720  0.10980413     0.10000
Br945      Br  0.09356669  0.29131364  0.08437378    -0.05600
Br946      Br  0.06180966  0.40208569  0.07907291    -0.02500
Br947      Br  0.11143836  0.30595229  0.14146321     0.00300
Br948      Br  0.14244197  0.36052909  0.08423810    -0.04100
C949        C  0.98039235  0.35323187  0.06953628    -0.11500
C950        C  0.95649779  0.35644187  0.06668651     0.04000
C951        C  0.94008527  0.35357793  0.07717595    -0.12000
C952        C  0.94707377  0.34803593  0.09059869     0.18900
C953        C  0.97085325  0.34410133  0.09329172    -0.09000
C954        C  0.98717371  0.34660534  0.08280064    -0.02000
H955        H  0.92181470  0.35654221  0.07497751     0.05400
C956        C  0.92953589  0.34764016  0.10175213     0.20800
H957        H  0.00544723  0.34393848  0.08513170     0.10600
C958        C  0.92550983  0.32697918  0.10908926    -0.15400
C959        C  0.90915878  0.32619259  0.11974860     0.03600
C960        C  0.89602398  0.34627835  0.12298458    -0.10700
C961        C  0.90021703  0.36691965  0.11563820    -0.00700
C962        C  0.91687057  0.36780886  0.10523249    -0.05900
H963        H  0.93511708  0.31134205  0.10647064     0.06600
H964        H  0.89062260  0.38263421  0.11809385     0.10000
Br965      Br  0.98230103  0.33698658  0.11129609    -0.05600
Br966      Br  0.94535111  0.36690481  0.04918547    -0.02500
Br967      Br  0.90498236  0.29695536  0.12896055     0.00300
Br968      Br  0.92223209  0.39731726  0.09649883    -0.04100
C969        C  0.02551270  0.32926628  0.95266936    -0.11500
C970        C  0.00546841  0.33504498  0.96057991     0.04000
C971        C  0.00584034  0.33301633  0.97484285    -0.12000
C972        C  0.02582792  0.32559870  0.98170080     0.18900
C973        C  0.04487124  0.31751038  0.97405910    -0.09000
C974        C  0.04455642  0.31908030  0.95971403    -0.02000
H975        H  0.99110108  0.33928113  0.98071899     0.05400
C976        C  0.02795458  0.33138055  0.99640508     0.20800
H977        H  0.06020008  0.31400787  0.95448675     0.10600
C978        C  0.01909665  0.31648529  0.00649498    -0.15400
C979        C  0.01833456  0.32343211  0.02030552     0.03600
C980        C  0.02510505  0.34640796  0.02405990    -0.10700
C981        C  0.03623744  0.36003234  0.01394016    -0.00700
C982        C  0.03727083  0.35296506  0.00030196    -0.05900
H983        H  0.01274437  0.29940658  0.00360985     0.06600
H984        H  0.04439202  0.37642728  0.01646803     0.10000
Br985      Br  0.07261160  0.30652750  0.98292803    -0.05600
Br986      Br  0.97786604  0.34913234  0.95325018    -0.02500
Br987      Br  0.00944743  0.29995476  0.03331798     0.00300
Br988      Br  0.05078556  0.37396806  0.98719385    -0.04100
C989        C  0.05853680  0.60125454  0.07510969    -0.11500
C990        C  0.08115345  0.59185183  0.07447955     0.04000
C991        C  0.09652847  0.59496502  0.08548655    -0.12000
C992        C  0.08959115  0.60709731  0.09731302     0.18900
C993        C  0.06690493  0.61645047  0.09792589    -0.09000
C994        C  0.05158456  0.61340678  0.08689059    -0.02000
H995        H  0.11385372  0.58752720  0.08493226     0.05400
C996        C  0.10611742  0.60928852  0.10896089     0.20800
H997        H  0.03407113  0.62038352  0.08754732     0.10600
C998        C  0.11484288  0.63128090  0.11260049    -0.15400
C999        C  0.13140490  0.63368223  0.12308678     0.03600
C1000       C  0.13990486  0.61373172  0.12995543    -0.10700
C1001       C  0.13036726  0.59188394  0.12666611    -0.00700
C1002       C  0.11364845  0.58955817  0.11631760    -0.05900
H1003       H  0.10880816  0.64664596  0.10720522     0.06600
H1004       H  0.13634540  0.57638377  0.13193648     0.10000
Br1005     Br  0.05565655  0.63242545  0.11386850    -0.05600
Br1006     Br  0.09113558  0.57321242  0.05926580    -0.02500
Br1007     Br  0.14069201  0.66467205  0.12803847     0.00300
Br1008     Br  0.10131214  0.55908236  0.11276555    -0.04100
C1009       C  0.98051722  0.60669626  0.07300340    -0.11500
C1010       C  0.96679742  0.58923780  0.07919660     0.04000
C1011       C  0.95112859  0.59507501  0.08957757    -0.12000
C1012       C  0.94839788  0.61820166  0.09381967     0.18900
C1013       C  0.96112716  0.63586775  0.08718320    -0.09000
C1014       C  0.97708982  0.63002318  0.07686826    -0.02000
H1015       H  0.94104862  0.58144180  0.09445158     0.05400
C1016       C  0.93316028  0.62295760  0.10571904     0.20800
H1017       H  0.98737465  0.64365294  0.07215335     0.10600
C1018       C  0.94061701  0.61581383  0.11873392    -0.15400
C1019       C  0.92592908  0.61740426  0.13013862     0.03600
C1020       C  0.90319512  0.62667446  0.12866986    -0.10700
C1021       C  0.89596916  0.63417284  0.11557606    -0.00700
C1022       C  0.91062713  0.63218200  0.10415768    -0.05900
H1023       H  0.95776205  0.60815315  0.11992611     0.06600
H1024       H  0.87854130  0.64097282  0.11409913     0.10000
Br1025     Br  0.95796840  0.66796826  0.09224657    -0.05600
Br1026     Br  0.96754248  0.55730123  0.07356583    -0.02500
Br1027     Br  0.93752501  0.60440340  0.14695171     0.00300
Br1028     Br  0.89858549  0.64059673  0.08648386    -0.04100
C1029       C  0.01717440  0.54010636  0.05686452    -0.11500
C1030       C  0.00193157  0.52575549  0.04923978     0.04000
C1031       C  0.00277672  0.50163239  0.05085662    -0.12000
C1032       C  0.01845607  0.49135396  0.06001755     0.18900
C1033       C  0.03294601  0.50554679  0.06808910    -0.09000
C1034       C  0.03216329  0.52979358  0.06651482    -0.02000
H1035       H  0.99145288  0.49073889  0.04470550     0.05400
C1036       C  0.02088728  0.46581174  0.05975252     0.20800
H1037       H  0.04381765  0.54054953  0.07253091     0.10600
C1038       C  0.03807580  0.45613029  0.05133680    -0.15400
C1039       C  0.03896664  0.43215465  0.04903721     0.03600
C1040       C  0.02214015  0.41744568  0.05508715    -0.10700
C1041       C  0.00560360  0.42707094  0.06404883    -0.00700
C1042       C  0.00486968  0.45112781  0.06639012    -0.05900
H1043       H  0.05059310  0.46737743  0.04631265     0.06600
H1044       H  0.99287784  0.41593835  0.06896625     0.10000
Br1045     Br  0.05417688  0.49244054  0.08116099    -0.05600
Br1046     Br  0.97878922  0.53778624  0.03691195    -0.02500
Br1047     Br  0.06430135  0.42054669  0.03813665     0.00300
Br1048     Br  0.98169334  0.46331812  0.07856943    -0.04100
C1049       C  0.03002415  0.40161419  0.92399103    -0.11500
C1050       C  0.03992176  0.41687930  0.93378470     0.04000
C1051       C  0.03671308  0.44087234  0.93250011    -0.12000
C1052       C  0.02554796  0.45049870  0.92102157     0.18900
C1053       C  0.01817716  0.43549277  0.91044957    -0.09000
C1054       C  0.01957603  0.41130982  0.91224273    -0.02000
H1055       H  0.04362121  0.45220528  0.94039166     0.05400
C1056       C  0.02323922  0.47625828  0.92022421     0.20800
H1057       H  0.01255190  0.40015788  0.90432693     0.10600
C1058       C  0.04321009  0.48984561  0.92247505    -0.15400
C1059       C  0.04163538  0.51393723  0.92404031     0.03600
C1060       C  0.02000212  0.52518209  0.92248371    -0.10700
C1061       C  0.00005171  0.51187350  0.91985244    -0.00700
C1062       C  0.00138484  0.48751081  0.91907813    -0.05900
H1063       H  0.06002637  0.48151247  0.92371843     0.06600
H1064       H  0.98319442  0.52027681  0.91936645     0.10000
Br1065     Br  0.00818590  0.44700352  0.89293245    -0.05600
Br1066     Br  0.06046469  0.40686181  0.94823022    -0.02500
Br1067     Br  0.06929930  0.53053188  0.92929031     0.00300
Br1068     Br  0.97255791  0.47059667  0.91837794    -0.04100
C1069       C  0.02231010  0.61037777  0.02688349    -0.11500
C1070       C  0.00234496  0.60771392  0.01831552     0.04000
C1071       C  0.00431457  0.60954363  0.00409016    -0.12000
C1072       C  0.02586993  0.61295796  0.99783065     0.18900
C1073       C  0.04555729  0.61690800  0.00608465    -0.09000
C1074       C  0.04366528  0.61590261  0.02042312    -0.02000
H1075       H  0.98916287  0.60611901  0.99776586     0.05400
C1076       C  0.02773559  0.60736281  0.98304451     0.20800
H1077       H  0.05954866  0.61746160  0.02624937     0.10600
C1078       C  0.02061823  0.62340057  0.97304618    -0.15400
C1079       C  0.01895327  0.61689695  0.95916636     0.03600
C1080       C  0.02317228  0.59346567  0.95513092    -0.10700
C1081       C  0.03237100  0.57830365  0.96523885    -0.00700
C1082       C  0.03416431  0.58484425  0.97896348    -0.05900
H1083       H  0.01617911  0.64099014  0.97606570     0.06600
H1084       H  0.03875434  0.56119779  0.96272599     0.10000
Br1085     Br  0.07579168  0.62128062  0.99813867    -0.05600
Br1086     Br  0.97209883  0.59822727  0.02467587    -0.02500
Br1087     Br  0.01190662  0.64130099  0.94638733     0.00300
Br1088     Br  0.04453757  0.56183996  0.99193895    -0.04100
C1089       C  0.15405075  0.59531390  0.62841058    -0.11500
C1090       C  0.16335813  0.60203641  0.61554209     0.04000
C1091       C  0.16055965  0.58752494  0.60414089    -0.12000
C1092       C  0.14890839  0.56623631  0.60529232     0.18900
C1093       C  0.14094825  0.55880687  0.61818472    -0.09000
C1094       C  0.14358750  0.57326304  0.62960535    -0.02000
H1095       H  0.16704009  0.59310855  0.59423709     0.05400
C1096       C  0.14388236  0.55257071  0.59285279     0.20800
H1097       H  0.13643790  0.56761474  0.63932407     0.10600
C1098       C  0.15890164  0.53445704  0.58899880    -0.15400
C1099       C  0.15314022  0.51976069  0.57806759     0.03600
C1100       C  0.13202398  0.52305329  0.57099034    -0.10700
C1101       C  0.11802343  0.54228530  0.57413826    -0.00700
C1102       C  0.12361061  0.55685231  0.58512786    -0.05900
H1103       H  0.17478755  0.53140581  0.59471683     0.06600
H1104       H  0.10233212  0.54552996  0.56830073     0.10000
Br1105     Br  0.12521081  0.52958689  0.62045789    -0.05600
Br1106     Br  0.18009824  0.63057663  0.61261008    -0.02500
Br1107     Br  0.17452154  0.49549308  0.57314232     0.00300
Br1108     Br  0.10240234  0.58147415  0.58977434    -0.04100
C1109       C  0.94849253  0.66760595  0.65279134    -0.11500
C1110       C  0.96170504  0.65760850  0.64210548     0.04000
C1111       C  0.98586015  0.66059987  0.64181670    -0.12000
C1112       C  0.99712964  0.67354859  0.65200549     0.18900
C1113       C  0.98377103  0.68549592  0.66183983    -0.09000
C1114       C  0.95955357  0.68253438  0.66215806    -0.02000
H1115       H  0.99603779  0.65161455  0.63410552     0.05400
C1116       C  0.02245982  0.67042003  0.65380716     0.20800
H1117       H  0.94960137  0.69066476  0.67028389     0.10600
C1118       C  0.03836704  0.68445979  0.64671638    -0.15400
C1119       C  0.06244688  0.68061785  0.64796188     0.03600
C1120       C  0.07079714  0.66244034  0.65647571    -0.10700
C1121       C  0.05462557  0.64840483  0.66342099    -0.00700
C1122       C  0.03074447  0.65224181  0.66214305    -0.05900
H1123       H  0.03202368  0.69816526  0.64005086     0.06600
H1124       H  0.06056018  0.63429632  0.66993146     0.10000
Br1125     Br  0.99821008  0.70436535  0.67565081    -0.05600
Br1126     Br  0.94776652  0.63945501  0.62775358    -0.02500
Br1127     Br  0.08270366  0.69963647  0.63703162     0.00300
Br1128     Br  0.00992331  0.63180322  0.67175680    -0.04100
C1129       C  0.87219697  0.59473339  0.62667174    -0.11500
C1130       C  0.86310229  0.57192268  0.62797225     0.04000
C1131       C  0.86368800  0.55666321  0.61674646    -0.12000
C1132       C  0.87349501  0.56351517  0.60421973     0.18900
C1133       C  0.88246241  0.58618581  0.60288219    -0.09000
C1134       C  0.88161562  0.60156160  0.61398185    -0.02000
H1135       H  0.85680086  0.53920725  0.61785501     0.05400
C1136       C  0.87521518  0.54644424  0.59288153     0.20800
H1137       H  0.88883994  0.61885380  0.61272779     0.10600
C1138       C  0.85525932  0.54027712  0.58538114    -0.15400
C1139       C  0.85635087  0.52335465  0.57499589     0.03600
C1140       C  0.87779019  0.51246202  0.57193579    -0.10700
C1141       C  0.89775672  0.51921775  0.57928140    -0.00700
C1142       C  0.89657004  0.53569464  0.58976421    -0.05900
H1143       H  0.83867574  0.54830783  0.58782539     0.06600
H1144       H  0.91441734  0.51111216  0.57713819     0.10000
Br1145     Br  0.89627078  0.59684151  0.58611521    -0.05600
Br1146     Br  0.84918631  0.56051906  0.64455415    -0.02500
Br1147     Br  0.82779550  0.51454328  0.56625266     0.00300
Br1148     Br  0.92432199  0.54176965  0.60014758    -0.04100
C1149       C  0.87466965  0.43115148  0.57294359    -0.11500
C1150       C  0.85213927  0.42694166  0.57805698     0.04000
C1151       C  0.84894768  0.41034139  0.58840265    -0.12000
C1152       C  0.86802118  0.39789440  0.59363378     0.18900
C1153       C  0.89037843  0.40169702  0.58821669    -0.09000
C1154       C  0.89348597  0.41815083  0.57790061    -0.02000
H1155       H  0.83165847  0.40724645  0.59244317     0.05400
C1156       C  0.86455423  0.38061243  0.60455595     0.20800
H1157       H  0.91059268  0.42065551  0.57366802     0.10600
C1158       C  0.86441972  0.35700947  0.60108814    -0.15400
C1159       C  0.86418973  0.33983856  0.61121518     0.03600
C1160       C  0.86434870  0.34633252  0.62524457    -0.10700
C1161       C  0.86334752  0.37017434  0.62860312    -0.00700
C1162       C  0.86340163  0.38725045  0.61838209    -0.05900
H1163       H  0.86515156  0.35193505  0.59040101     0.06600
H1164       H  0.86322078  0.37565434  0.63921713     0.10000
Br1165     Br  0.91728413  0.38520622  0.59476798    -0.05600
Br1166     Br  0.82550948  0.44381049  0.57152166    -0.02500
Br1167     Br  0.86418707  0.30818353  0.60478680     0.00300
Br1168     Br  0.86308171  0.41941932  0.62371513    -0.04100
C1169       C  0.94976378  0.28169840  0.65099644    -0.11500
C1170       C  0.96114592  0.26055665  0.65435545     0.04000
C1171       C  0.98551364  0.25920127  0.65371884    -0.12000
C1172       C  0.99878062  0.27848622  0.64967073     0.18900
C1173       C  0.98746149  0.29909268  0.64565595    -0.09000
C1174       C  0.96323438  0.30057007  0.64635567    -0.02000
H1175       H  0.99421772  0.24330983  0.65685649     0.05400
C1176       C  0.02437812  0.27788794  0.65095782     0.20800
H1177       H  0.95493354  0.31686540  0.64355726     0.10600
C1178       C  0.03819022  0.27506385  0.63924970    -0.15400
C1179       C  0.06241427  0.27786362  0.63990023     0.03600
C1180       C  0.07313013  0.28367161  0.65251948    -0.10700
C1181       C  0.05917698  0.28544572  0.66431309    -0.00700
C1182       C  0.03505609  0.28262786  0.66361038    -0.05900
H1183       H  0.02996504  0.27160536  0.62945629     0.06600
H1184       H  0.06697230  0.28973912  0.67411203     0.10000
Br1185     Br  0.00451315  0.32617258  0.63996622    -0.05600
Br1186     Br  0.94494589  0.23349134  0.66085754    -0.02500
Br1187     Br  0.07922193  0.27551315  0.62295279     0.00300
Br1188     Br  0.01716392  0.28702369  0.68001920    -0.04100
C1189       C  0.14213183  0.36096596  0.62547478    -0.11500
C1190       C  0.15822281  0.36336641  0.61459611     0.04000
C1191       C  0.15418764  0.37976266  0.60423787    -0.12000
C1192       C  0.13438590  0.39400240  0.60448630     0.18900
C1193       C  0.11848482  0.39195212  0.61537613    -0.09000
C1194       C  0.12249238  0.37564424  0.62578870    -0.02000
H1195       H  0.16667457  0.38156946  0.59598826     0.05400
C1196       C  0.13103686  0.41143236  0.59352093     0.20800
H1197       H  0.10985610  0.37403071  0.63397051     0.10600
C1198       C  0.12069913  0.40481653  0.58108525    -0.15400
C1199       C  0.11706395  0.42116156  0.57060672     0.03600
C1200       C  0.12406712  0.44451184  0.57250881    -0.10700
C1201       C  0.13410686  0.45100433  0.58506299    -0.00700
C1202       C  0.13791048  0.43467871  0.59543037    -0.05900
H1203       H  0.11505086  0.38698208  0.57964095     0.06600
H1204       H  0.13889843  0.46893806  0.58689390     0.10000
Br1205     Br  0.09084963  0.41073680  0.61622373    -0.05600
Br1206     Br  0.18659127  0.34571582  0.61354307    -0.02500
Br1207     Br  0.10049101  0.41111318  0.55458123     0.00300
Br1208     Br  0.15259131  0.44487864  0.61204153    -0.04100
C1209       C  0.18045419  0.33187422  0.77086048    -0.11500
C1210       C  0.15831924  0.33357176  0.76454634     0.04000
C1211       C  0.15629770  0.33103201  0.75033042    -0.12000
C1212       C  0.17588913  0.32677030  0.74213553     0.18900
C1213       C  0.19796367  0.32529891  0.74832072    -0.09000
C1214       C  0.20008221  0.32782942  0.76252938    -0.02000
H1215       H  0.13926938  0.33240098  0.74559787     0.05400
C1216       C  0.17260630  0.32335774  0.72722790     0.20800
H1217       H  0.21724268  0.32648206  0.76708488     0.10600
C1218       C  0.18004385  0.34050383  0.71796681    -0.15400
C1219       C  0.17557295  0.33840972  0.70387396     0.03600
C1220       C  0.16340915  0.31870136  0.69884724    -0.10700
C1221       C  0.15638314  0.30147905  0.70825362    -0.00700
C1222       C  0.16084765  0.30366353  0.72224437    -0.05900
H1223       H  0.18898251  0.35580789  0.72176770     0.06600
H1224       H  0.14724817  0.28609150  0.70476175     0.10000
Br1225     Br  0.22560045  0.31922969  0.73786301    -0.05600
Br1226     Br  0.13021768  0.34041245  0.77440529    -0.02500
Br1227     Br  0.18603825  0.36345685  0.69237992     0.00300
Br1228     Br  0.15075232  0.27905200  0.73416053    -0.04100
C1229       C  0.14443747  0.33117428  0.84877098    -0.11500
C1230       C  0.15167553  0.32004906  0.86099344     0.04000
C1231       C  0.13682352  0.31934567  0.87236697    -0.12000
C1232       C  0.11470384  0.32958143  0.87183975     0.18900
C1233       C  0.10701506  0.33977282  0.85950865    -0.09000
C1234       C  0.12176827  0.34035743  0.84807665    -0.02000
H1235       H  0.14278173  0.31129315  0.88178915     0.05400
C1236       C  0.10067550  0.33142802  0.88451260     0.20800
H1237       H  0.11582361  0.34886371  0.83879842     0.10600
C1238       C  0.10038743  0.35273083  0.89151556    -0.15400
C1239       C  0.08588712  0.35606724  0.90284066     0.03600
C1240       C  0.07126865  0.33793162  0.90732379    -0.10700
C1241       C  0.07243329  0.31618026  0.90077448    -0.00700
C1242       C  0.08709787  0.31280543  0.88944544    -0.05900
H1243       H  0.11114225  0.36699805  0.88795478     0.06600
H1244       H  0.06114870  0.30214714  0.90408356     0.10000
Br1245     Br  0.07668784  0.35364318  0.85801700    -0.05600
Br1246     Br  0.18137949  0.30506176  0.86276629    -0.02500
Br1247     Br  0.08675488  0.38570676  0.91185682     0.00300
Br1248     Br  0.08714392  0.28302718  0.88056545    -0.04100
C1249       C  0.17174231  0.62438999  0.77800374    -0.11500
C1250       C  0.15482456  0.63959409  0.77237890     0.04000
C1251       C  0.15080628  0.63969470  0.75821719    -0.12000
C1252       C  0.16370849  0.62538182  0.74936174     0.18900
C1253       C  0.18120123  0.61095992  0.75487491    -0.09000
C1254       C  0.18476198  0.61026666  0.76903496    -0.02000
H1255       H  0.13787406  0.65147378  0.75401884     0.05400
C1256       C  0.16017809  0.62766918  0.73436718     0.20800
H1257       H  0.19818762  0.59883211  0.77300429     0.10600
C1258       C  0.16468813  0.64926884  0.72824294    -0.15400
C1259       C  0.16148635  0.65265361  0.71419312     0.03600
C1260       C  0.15371277  0.63405906  0.70587248    -0.10700
C1261       C  0.14931707  0.61233364  0.71199931    -0.00700
C1262       C  0.15211923  0.60912586  0.72615614    -0.05900
H1263       H  0.17091538  0.66361427  0.73445722     0.06600
H1264       H  0.14307050  0.59796521  0.70581607     0.10000
Br1265     Br  0.20207355  0.59335426  0.74351876    -0.05600
Br1266     Br  0.13773216  0.66189173  0.78307256    -0.02500
Br1267     Br  0.16928976  0.68284220  0.70704406     0.00300
Br1268     Br  0.14339571  0.57962442  0.73386656    -0.04100
C1269       C  0.20162694  0.54278366  0.82189216    -0.11500
C1270       C  0.22243127  0.53210596  0.81722576     0.04000
C1271       C  0.22372245  0.50771720  0.81619472    -0.12000
C1272       C  0.20463649  0.49370928  0.81973199     0.18900
C1273       C  0.18435189  0.50424788  0.82488284    -0.09000
C1274       C  0.18293996  0.52844301  0.82582978    -0.02000
H1275       H  0.23947547  0.49967092  0.81233546     0.05400
C1276       C  0.20571167  0.46815054  0.81787913     0.20800
H1277       H  0.16694230  0.53607135  0.82964199     0.10600
C1278       C  0.21854600  0.45456854  0.82713500    -0.15400
C1279       C  0.21741582  0.43017512  0.82674928     0.03600
C1280       C  0.20315018  0.41900474  0.81690858    -0.10700
C1281       C  0.19103961  0.43277856  0.80734577    -0.00700
C1282       C  0.19236988  0.45706624  0.80769308    -0.05900
H1283       H  0.22879762  0.46301352  0.83503094     0.06600
H1284       H  0.18032383  0.42462547  0.79955529     0.10000
Br1285     Br  0.15807487  0.48626147  0.83087955    -0.05600
Br1286     Br  0.24921695  0.54949191  0.81142364    -0.02500
Br1287     Br  0.23433458  0.41350152  0.84061931     0.00300
Br1288     Br  0.17541729  0.47444421  0.79414035    -0.04100
C1289       C  0.05365138  0.59283184  0.90623289    -0.11500
C1290       C  0.06127693  0.57789738  0.89555231     0.04000
C1291       C  0.07631825  0.58632711  0.88544989    -0.12000
C1292       C  0.08429605  0.60931585  0.88568315     0.18900
C1293       C  0.07660635  0.62437975  0.89607306    -0.09000
C1294       C  0.06136603  0.61615014  0.90617476    -0.02000
H1295       H  0.08243259  0.57461822  0.87751057     0.05400
C1296       C  0.10180520  0.61640626  0.87540856     0.20800
H1297       H  0.05544803  0.62815731  0.91400257     0.10600
C1298       C  0.09456705  0.62301577  0.86226108    -0.15400
C1299       C  0.11077312  0.62625898  0.85168581     0.03600
C1300       C  0.13481545  0.62239077  0.85417915    -0.10700
C1301       C  0.14193726  0.61694302  0.86761855    -0.00700
C1302       C  0.12570190  0.61392820  0.87814239    -0.05900
H1303       H  0.07615211  0.62506699  0.86013465     0.06600
H1304       H  0.16017991  0.61409390  0.86989871     0.10000
Br1305     Br  0.08669653  0.65616341  0.89689247    -0.05600
Br1306     Br  0.05390921  0.54539385  0.89426762    -0.02500
Br1307     Br  0.09856606  0.63585243  0.83423639     0.00300
Br1308     Br  0.13678796  0.60504822  0.89595284    -0.04100
C1309       C  0.87058368  0.32640379  0.77367392    -0.11500
C1310       C  0.89199364  0.32040749  0.76740594     0.04000
C1311       C  0.89322282  0.31808313  0.75313204    -0.12000
C1312       C  0.87348846  0.32163381  0.74493725     0.18900
C1313       C  0.85227508  0.32782622  0.75109813    -0.09000
C1314       C  0.85101299  0.33040598  0.76530262    -0.02000
H1315       H  0.90959473  0.31325378  0.74839658     0.05400
C1316       C  0.87483550  0.31735229  0.73006329     0.20800
H1317       H  0.83438061  0.33486985  0.76984070     0.10600
C1318       C  0.87292505  0.29445823  0.72530419    -0.15400
C1319       C  0.87270674  0.28959736  0.71127287     0.03600
C1320       C  0.87452297  0.30800895  0.70166558    -0.10700
C1321       C  0.87653150  0.33099047  0.70654576    -0.00700
C1322       C  0.87681767  0.33572022  0.72061416    -0.05900
H1323       H  0.87113525  0.28030242  0.73258170     0.06600
H1324       H  0.87812375  0.34535505  0.69940386     0.10000
Br1325     Br  0.82430870  0.33167770  0.74054220    -0.05600
Br1326     Br  0.92029847  0.31565697  0.77753161    -0.02500
Br1327     Br  0.86855141  0.25754047  0.70617538     0.00300
Br1328     Br  0.88012501  0.36740644  0.72653409    -0.04100
C1329       C  0.91367466  0.32732163  0.84897698    -0.11500
C1330       C  0.93152957  0.34420127  0.84863584     0.04000
C1331       C  0.94805850  0.34500268  0.85915025    -0.12000
C1332       C  0.94699297  0.32936270  0.87015056     0.18900
C1333       C  0.92911228  0.31261601  0.87057032    -0.09000
C1334       C  0.91258567  0.31172097  0.86003401    -0.02000
H1335       H  0.96137488  0.35836153  0.85898317     0.05400
C1336       C  0.96343273  0.33214549  0.88166447     0.20800
H1337       H  0.89882527  0.29884185  0.86048869     0.10600
C1338       C  0.95536868  0.34229710  0.89381297    -0.15400
C1339       C  0.97040622  0.34595718  0.90485203     0.03600
C1340       C  0.99386795  0.33893507  0.90394667    -0.10700
C1341       C  0.00207595  0.32919824  0.89167354    -0.00700
C1342       C  0.98705861  0.32584669  0.88053481    -0.05900
H1343       H  0.93736651  0.34787488  0.89458039     0.06600
H1344       H  0.02022038  0.32418707  0.89076195     0.10000
Br1345     Br  0.92666264  0.29072247  0.88535537    -0.05600
Br1346     Br  0.93276966  0.36814902  0.83489894    -0.02500
Br1347     Br  0.95844200  0.36260426  0.92029153     0.00300
Br1348     Br  0.99942272  0.31252509  0.86405464    -0.04100
C1349       C  0.86289733  0.61056960  0.77588183    -0.11500
C1350       C  0.88527843  0.60926574  0.76985143     0.04000
C1351       C  0.88777977  0.61236060  0.75567169    -0.12000
C1352       C  0.86838638  0.61686242  0.74732383     0.18900
C1353       C  0.84615556  0.61816966  0.75329132    -0.09000
C1354       C  0.84355751  0.61489258  0.76738340    -0.02000
H1355       H  0.90494430  0.61122658  0.75111045     0.05400
C1356       C  0.87153766  0.62036836  0.73242162     0.20800
H1357       H  0.82624731  0.61613244  0.77173630     0.10600
C1358       C  0.86384214  0.60321254  0.72326754    -0.15400
C1359       C  0.86537209  0.60648318  0.70906213     0.03600
C1360       C  0.87477893  0.62746409  0.70375922    -0.10700
C1361       C  0.88286340  0.64437515  0.71308474    -0.00700
C1362       C  0.88133291  0.64097305  0.72724235    -0.05900
H1363       H  0.85634355  0.58725748  0.72722696     0.06600
H1364       H  0.89014592  0.66059514  0.70938960     0.10000
Br1365     Br  0.81891374  0.62539710  0.74269126    -0.05600
Br1366     Br  0.91300467  0.60245028  0.78012291    -0.02500
Br1367     Br  0.85402147  0.58151903  0.69779273     0.00300
Br1368     Br  0.89191623  0.66540388  0.73912919    -0.04100
C1369       C  0.83339435  0.52661718  0.81975086    -0.11500
C1370       C  0.82421402  0.51492914  0.83130537     0.04000
C1371       C  0.82389615  0.49056067  0.83159771    -0.12000
C1372       C  0.83256772  0.47763835  0.82056593     0.18900
C1373       C  0.84057595  0.48916393  0.80878573    -0.09000
C1374       C  0.84094753  0.51344634  0.80845109    -0.02000
H1375       H  0.81785822  0.48163984  0.84071807     0.05400
C1376       C  0.83553574  0.45233386  0.82200209     0.20800
H1377       H  0.84786032  0.52206980  0.79944306     0.10600
C1378       C  0.81746191  0.43733734  0.81816873    -0.15400
C1379       C  0.82075897  0.41318286  0.81826608     0.03600
C1380       C  0.84256027  0.40387882  0.82222436    -0.10700
C1381       C  0.86034235  0.41905690  0.82643396    -0.00700
C1382       C  0.85693404  0.44309043  0.82641530    -0.05900
H1383       H  0.80100706  0.44448717  0.81469867     0.06600
H1384       H  0.87712366  0.41221520  0.82958942     0.10000
Br1385     Br  0.85239699  0.47236310  0.79326458    -0.05600
Br1386     Br  0.81409265  0.53083050  0.84754372    -0.02500
Br1387     Br  0.79553321  0.39420355  0.81177383     0.00300
Br1388     Br  0.88218578  0.46273494  0.83211916    -0.04100
C1389       C  0.89872860  0.60185602  0.85331684    -0.11500
C1390       C  0.92316130  0.60029493  0.85157075     0.04000
C1391       C  0.93778804  0.59921374  0.86308217    -0.12000
C1392       C  0.92858993  0.59971793  0.87638680     0.18900
C1393       C  0.90440259  0.60185910  0.87815979    -0.09000
C1394       C  0.88972558  0.60274852  0.86672063    -0.02000
H1395       H  0.95641282  0.59737730  0.86165692     0.05400
C1396       C  0.94431249  0.59639201  0.88826255     0.20800
H1397       H  0.87111432  0.60414585  0.86834886     0.10600
C1398       C  0.95692325  0.61531942  0.89352108    -0.15400
C1399       C  0.97285899  0.61217764  0.90428501     0.03600
C1400       C  0.97599790  0.58989025  0.91008860    -0.10700
C1401       C  0.96313910  0.57110781  0.90489198    -0.00700
C1402       C  0.94750962  0.57416042  0.89404574    -0.05900
H1403       H  0.95487191  0.63241362  0.88896455     0.06600
H1404       H  0.96592391  0.55379023  0.90895059     0.10000
Br1405     Br  0.89071665  0.60352373  0.89605420    -0.05600
Br1406     Br  0.93770988  0.59797136  0.83391170    -0.02500
Br1407     Br  0.99158624  0.63822447  0.90969469     0.00300
Br1408     Br  0.93203430  0.54719996  0.88684865    -0.04100
C1409       C  0.28848812  0.78309258  0.32724814    -0.11500
C1410       C  0.28601581  0.76730815  0.31622860     0.04000
C1411       C  0.26817654  0.75081960  0.31647727    -0.12000
C1412       C  0.25253760  0.74986371  0.32744846     0.18900
C1413       C  0.25501149  0.76538550  0.33848318    -0.09000
C1414       C  0.27287167  0.78190798  0.33830300    -0.02000
H1415       H  0.26609375  0.73903272  0.30789158     0.05400
C1416       C  0.23327126  0.73303889  0.32680319     0.20800
H1417       H  0.27453719  0.79388124  0.34682387     0.10600
C1418       C  0.23747692  0.70976273  0.33024311    -0.15400
C1419       C  0.22010197  0.69290926  0.32868255     0.03600
C1420       C  0.19804419  0.69933133  0.32334228    -0.10700
C1421       C  0.19387519  0.72291877  0.32020962    -0.00700
C1422       C  0.21125707  0.73968510  0.32189011    -0.05900
H1423       H  0.25446071  0.70467263  0.33408631     0.06600
H1424       H  0.17714122  0.72836403  0.31618749     0.10000
Br1425     Br  0.23430342  0.76469307  0.35388382    -0.05600
Br1426     Br  0.30494331  0.76847396  0.29999617    -0.02500
Br1427     Br  0.22784042  0.66184655  0.33443686     0.00300
Br1428     Br  0.20450723  0.77135155  0.31693830    -0.04100
C1429       C  0.20070285  0.25818010  0.32175349    -0.11500
C1430       C  0.21566755  0.25139939  0.31101227     0.04000
C1431       C  0.23178731  0.23349205  0.31311479    -0.12000
C1432       C  0.23334027  0.22218454  0.32581324     0.18900
C1433       C  0.21866329  0.22913055  0.33660397    -0.09000
C1434       C  0.20228919  0.24684901  0.33447080    -0.02000
H1435       H  0.24290817  0.22805378  0.30473595     0.05400
C1436       C  0.24953131  0.20236766  0.32729574     0.20800
H1437       H  0.19099856  0.25202182  0.34281987     0.10600
C1438       C  0.27070660  0.20538350  0.33421942    -0.15400
C1439       C  0.28695030  0.18720210  0.33500445     0.03600
C1440       C  0.28187420  0.16543888  0.32889674    -0.10700
C1441       C  0.26028594  0.16236766  0.32235774    -0.00700
C1442       C  0.24433225  0.18067437  0.32136866    -0.05900
H1443       H  0.27475353  0.22207348  0.33882682     0.06600
H1444       H  0.25613567  0.14591909  0.31750943     0.10000
Br1445     Br  0.22019532  0.21466477  0.35429920    -0.05600
Br1446     Br  0.21373817  0.26477573  0.29300379    -0.02500
Br1447     Br  0.31539221  0.19316031  0.34476434     0.00300
Br1448     Br  0.21587059  0.17549167  0.31150324    -0.04100
C1449       C  0.32618614  0.91170435  0.32991917    -0.11500
C1450       C  0.34263296  0.92673868  0.33605045     0.04000
C1451       C  0.33934665  0.95083600  0.33545421    -0.12000
C1452       C  0.31967805  0.96033510  0.32904056     0.18900
C1453       C  0.30262976  0.94541803  0.32358318    -0.09000
C1454       C  0.30593275  0.92126184  0.32406692    -0.02000
H1455       H  0.35230881  0.96227206  0.33991445     0.05400
C1456       C  0.31785449  0.98587227  0.32772029     0.20800
H1457       H  0.29299102  0.90997895  0.31946712     0.10600
C1458       C  0.32329058  0.99628764  0.31514205    -0.15400
C1459       C  0.32398336  0.02053101  0.31383599     0.03600
C1460       C  0.31935098  0.03476317  0.32532812    -0.10700
C1461       C  0.31274779  0.02424815  0.33773090    -0.00700
C1462       C  0.31210914  0.99996901  0.33899908    -0.05900
H1463       H  0.32741280  0.98547966  0.30636755     0.06600
H1464       H  0.30897288  0.03490392  0.34661664     0.10000
Br1465     Br  0.27470212  0.95742361  0.31540436    -0.05600
Br1466     Br  0.36935427  0.91548547  0.34592104    -0.02500
Br1467     Br  0.33060864  0.03310238  0.29600819     0.00300
Br1468     Br  0.30368179  0.98666385  0.35632481    -0.04100
C1469       C  0.70957834  0.75970408  0.15287400    -0.11500
C1470       C  0.72902007  0.76232677  0.14411055     0.04000
C1471       C  0.74573026  0.74457823  0.14332222    -0.12000
C1472       C  0.74331057  0.72409018  0.15101156     0.18900
C1473       C  0.72353888  0.72109107  0.15931438    -0.09000
C1474       C  0.70682854  0.73870009  0.16008837    -0.02000
H1475       H  0.76091518  0.74692605  0.13687810     0.05400
C1476       C  0.76262528  0.70714518  0.15144140     0.20800
H1477       H  0.69212453  0.73632603  0.16689217     0.10600
C1478       C  0.78273419  0.71300878  0.15878358    -0.15400
C1479       C  0.80068055  0.69686233  0.16067559     0.03600
C1480       C  0.79874719  0.67428538  0.15495274    -0.10700
C1481       C  0.77866845  0.66869005  0.14734308    -0.00700
C1482       C  0.76073690  0.68490423  0.14553186    -0.05900
H1483       H  0.78411625  0.73006742  0.16347005     0.06600
H1484       H  0.77682101  0.65158683  0.14279153     0.10000
Br1485     Br  0.71949079  0.69408626  0.17067386    -0.05600
Br1486     Br  0.73362261  0.78926691  0.13275713    -0.02500
Br1487     Br  0.82626649  0.70662854  0.17200309     0.00300
Br1488     Br  0.73401408  0.67595559  0.13495113    -0.04100
C1489       C  0.25112413  0.66847460  0.15239084    -0.11500
C1490       C  0.24561292  0.69124978  0.14784700     0.04000
C1491       C  0.26267297  0.70872847  0.14806592    -0.12000
C1492       C  0.28526931  0.70407820  0.15281332     0.18900
C1493       C  0.29088086  0.68138324  0.15717575    -0.09000
C1494       C  0.27402031  0.66378887  0.15673584    -0.02000
H1495       H  0.25816912  0.72619292  0.14475817     0.05400
C1496       C  0.30207795  0.72348893  0.15438835     0.20800
H1497       H  0.27857735  0.64659211  0.16045339     0.10600
C1498       C  0.29848631  0.73970296  0.16490651    -0.15400
C1499       C  0.31459238  0.75748366  0.16743002     0.03600
C1500       C  0.33487804  0.75930578  0.15928178    -0.10700
C1501       C  0.33828672  0.74314961  0.14863408    -0.00700
C1502       C  0.32198436  0.72552917  0.14605409    -0.05900
H1503       H  0.28327283  0.73817273  0.17141056     0.06600
H1504       H  0.35354110  0.74441153  0.14215180     0.10000
Br1505     Br  0.32073499  0.67410460  0.16495748    -0.05600
Br1506     Br  0.21534458  0.69967246  0.14106427    -0.02500
Br1507     Br  0.30842532  0.77756383  0.18274953     0.00300
Br1508     Br  0.32726923  0.70506118  0.13083696    -0.04100
C1509       C  0.35588355  0.83467659  0.28180693    -0.11500
C1510       C  0.37604804  0.84472195  0.27604583     0.04000
C1511       C  0.37975754  0.84341886  0.26190020    -0.12000
C1512       C  0.36366589  0.83224965  0.25332106     0.18900
C1513       C  0.34368430  0.82195589  0.25907650    -0.09000
C1514       C  0.33981057  0.82347147  0.27318693    -0.02000
H1515       H  0.39519916  0.85131163  0.25753696     0.05400
C1516       C  0.36853653  0.83079239  0.23847760     0.20800
H1517       H  0.32437492  0.81544410  0.27748069     0.10600
C1518       C  0.38697649  0.81678473  0.23400320    -0.15400
C1519       C  0.39203204  0.81452081  0.22005362     0.03600
C1520       C  0.37807042  0.82611936  0.21018596    -0.10700
C1521       C  0.36014548  0.84090942  0.21479975    -0.00700
C1522       C  0.35549399  0.84348513  0.22880647    -0.05900
H1523       H  0.39754597  0.80755145  0.24144577     0.06600
H1524       H  0.34953182  0.85037763  0.20749815     0.10000
Br1525     Br  0.32177554  0.80476433  0.24819689    -0.05600
Br1526     Br  0.39839434  0.86163717  0.28677449    -0.02500
Br1527     Br  0.41900912  0.79625830  0.21548870     0.00300
Br1528     Br  0.33174950  0.86508930  0.23432043    -0.04100
C1529       C  0.58568393  0.80155037  0.16321709    -0.11500
C1530       C  0.57391588  0.78842631  0.15306870     0.04000
C1531       C  0.54952691  0.78727925  0.15318058    -0.12000
C1532       C  0.53662208  0.79899364  0.16322326     0.18900
C1533       C  0.54830096  0.81131738  0.17358618    -0.09000
C1534       C  0.57255285  0.81257800  0.17349465    -0.02000
H1535       H  0.54053906  0.77782691  0.14514708     0.05400
C1536       C  0.51099114  0.79965775  0.16232285     0.20800
H1537       H  0.58116349  0.82253086  0.18145820     0.10600
C1538       C  0.49783549  0.78111754  0.16752851    -0.15400
C1539       C  0.47346327  0.78243574  0.16801518     0.03600
C1540       C  0.46197554  0.80263363  0.16316868    -0.10700
C1541       C  0.47531748  0.82086405  0.15764938    -0.00700
C1542       C  0.49957379  0.81946801  0.15714834    -0.05900
H1543       H  0.50660191  0.76592319  0.17164133     0.06600
H1544       H  0.46684156  0.83641630  0.15377957     0.10000
Br1545     Br  0.53175180  0.82714111  0.18791202    -0.05600
Br1546     Br  0.58965635  0.77310835  0.13822630    -0.02500
Br1547     Br  0.45721474  0.75704266  0.17650383     0.00300
Br1548     Br  0.51651495  0.84525049  0.14957629    -0.04100
C1549       C  0.74259038  0.80485162  0.33052280    -0.11500
C1550       C  0.76561225  0.80764818  0.32567481     0.04000
C1551       C  0.78127212  0.78903466  0.32642826    -0.12000
C1552       C  0.77455291  0.76765888  0.33209290     0.18900
C1553       C  0.75220431  0.76535158  0.33783743    -0.09000
C1554       C  0.73630436  0.78374170  0.33682026    -0.02000
H1555       H  0.79857747  0.79098694  0.32215214     0.05400
C1556       C  0.79083241  0.74778639  0.33135928     0.20800
H1557       H  0.71889306  0.78147632  0.34089164     0.10600
C1558       C  0.81184282  0.74871682  0.33864538    -0.15400
C1559       C  0.82811144  0.73063556  0.33770446     0.03600
C1560       C  0.82317717  0.71093180  0.32951109    -0.10700
C1561       C  0.80207518  0.71010176  0.32224108    -0.00700
C1562       C  0.78621515  0.72852784  0.32285479    -0.05900
H1563       H  0.81566259  0.76369432  0.34501480     0.06600
H1564       H  0.79829928  0.69546475  0.31558697     0.10000
Br1565     Br  0.74284948  0.73753147  0.34726928    -0.05600
Br1566     Br  0.77638333  0.83556935  0.31689280    -0.02500
Br1567     Br  0.85637331  0.73390598  0.34807221     0.00300
Br1568     Br  0.75948671  0.72747841  0.31102116    -0.04100
C1569       C  0.67947796  0.85152062  0.27774795    -0.11500
C1570       C  0.69456254  0.86327816  0.26854921     0.04000
C1571       C  0.69196351  0.86026614  0.25439909    -0.12000
C1572       C  0.67442904  0.84596060  0.24910330     0.18900
C1573       C  0.65884052  0.83496858  0.25812618    -0.09000
C1574       C  0.66140321  0.83781170  0.27230444    -0.02000
H1575       H  0.70384340  0.86898351  0.24746183     0.05400
C1576       C  0.67352959  0.84167180  0.23418593     0.20800
H1577       H  0.64947291  0.82885262  0.27909532     0.10600
C1578       C  0.68440869  0.82174801  0.22894399    -0.15400
C1579       C  0.68392351  0.81682764  0.21491062     0.03600
C1580       C  0.67238120  0.83215667  0.20578892    -0.10700
C1581       C  0.66197417  0.85245070  0.21108958    -0.00700
C1582       C  0.66237155  0.85719154  0.22516883    -0.05900
H1583       H  0.69330296  0.80991052  0.23584818     0.06600
H1584       H  0.65287244  0.86433957  0.20432559     0.10000
Br1585     Br  0.63393471  0.81582627  0.25145298    -0.05600
Br1586     Br  0.71855948  0.88441369  0.27436120    -0.02500
Br1587     Br  0.70006695  0.78928796  0.20898428     0.00300
Br1588     Br  0.64676535  0.88453564  0.23174650    -0.04100
C1589       C  0.73028469  0.18382495  0.32321116    -0.11500
C1590       C  0.74676509  0.18498961  0.33391247     0.04000
C1591       C  0.76387561  0.20231273  0.33371727    -0.12000
C1592       C  0.76505167  0.21823456  0.32285865     0.18900
C1593       C  0.74862306  0.21711790  0.31219893    -0.09000
C1594       C  0.73115759  0.20024537  0.31256324    -0.02000
H1595       H  0.77661934  0.20307833  0.34190179     0.05400
C1596       C  0.78456505  0.23475724  0.32225391     0.20800
H1597       H  0.71878701  0.19933327  0.30417503     0.10600
C1598       C  0.80503007  0.22790943  0.31560623    -0.15400
C1599       C  0.82377396  0.24323561  0.31433018     0.03600
C1600       C  0.82221139  0.26588790  0.31992610    -0.10700
C1601       C  0.80155457  0.27266546  0.32657914    -0.00700
C1602       C  0.78281959  0.25725910  0.32780271    -0.05900
H1603       H  0.80621820  0.21066534  0.31114071     0.06600
H1604       H  0.79995311  0.29002541  0.33084124     0.10000
Br1605     Br  0.75022762  0.23742427  0.29660487    -0.05600
Br1606     Br  0.74648870  0.16376947  0.34910979    -0.02500
Br1607     Br  0.85001816  0.23262498  0.30385311     0.00300
Br1608     Br  0.75510386  0.26762968  0.33693199    -0.04100
C1609       C  0.69602244  0.05554631  0.32191498    -0.11500
C1610       C  0.70680359  0.04483468  0.33332240     0.04000
C1611       C  0.70851975  0.02048778  0.33386889    -0.12000
C1612       C  0.69935036  0.00668115  0.32331640     0.18900
C1613       C  0.68876988  0.01734025  0.31195998    -0.09000
C1614       C  0.68738244  0.04150262  0.31127823    -0.02000
H1615       H  0.71626778  0.01224710  0.34277076     0.05400
C1616       C  0.69908451  0.98116587  0.32469094     0.20800
H1617       H  0.67897825  0.04933134  0.30245257     0.10600
C1618       C  0.67841127  0.97039969  0.32883250    -0.15400
C1619       C  0.67645885  0.94617796  0.32899578     0.03600
C1620       C  0.69565999  0.93223447  0.32506492    -0.10700
C1621       C  0.71665687  0.94315805  0.32135983    -0.00700
C1622       C  0.71838252  0.96747103  0.32102010    -0.05900
H1623       H  0.66351901  0.98097153  0.33166387     0.06600
H1624       H  0.73150553  0.93279676  0.31823733     0.10000
Br1625     Br  0.67515958  0.99957575  0.29734857    -0.05600
Br1626     Br  0.71740226  0.06205715  0.34898626    -0.02500
Br1627     Br  0.64714133  0.93360010  0.33492577     0.00300
Br1628     Br  0.74683228  0.98132116  0.31474799    -0.04100
C1629       C  0.32800964  0.19661834  0.15808675    -0.11500
C1630       C  0.30529993  0.19337657  0.15275685     0.04000
C1631       C  0.28975655  0.21216685  0.15230982    -0.12000
C1632       C  0.29628179  0.23409285  0.15727367     0.18900
C1633       C  0.31867326  0.23731631  0.16272616    -0.09000
C1634       C  0.33442184  0.21877818  0.16291780    -0.02000
H1635       H  0.27239923  0.20963488  0.14818942     0.05400
C1636       C  0.27922801  0.25324380  0.15717017     0.20800
H1637       H  0.35155104  0.22156584  0.16728082     0.10600
C1638       C  0.26465967  0.25617325  0.16851892    -0.15400
C1639       C  0.24831465  0.27419208  0.16887089     0.03600
C1640       C  0.24621308  0.28951333  0.15758979    -0.10700
C1641       C  0.26128452  0.28684263  0.14636425    -0.00700
C1642       C  0.27766857  0.26879395  0.14607684    -0.05900
H1643       H  0.26619653  0.24449160  0.17720379     0.06600
H1644       H  0.26000735  0.29851988  0.13766932     0.10000
Br1645     Br  0.32809199  0.26652230  0.17049437    -0.05600
Br1646     Br  0.29440039  0.16413281  0.14568005    -0.02500
Br1647     Br  0.23057241  0.27773347  0.18542329     0.00300
Br1648     Br  0.29746938  0.26580849  0.13035632    -0.04100
C1649       C  0.34594584  0.11828430  0.28040229    -0.11500
C1650       C  0.36823301  0.11613537  0.27434995     0.04000
C1651       C  0.37083176  0.11896430  0.26017668    -0.12000
C1652       C  0.35163544  0.12378433  0.25173081     0.18900
C1653       C  0.32933839  0.12537875  0.25766221    -0.09000
C1654       C  0.32668757  0.12270676  0.27183198    -0.02000
H1655       H  0.38797315  0.11712527  0.25566270     0.05400
C1656       C  0.35528179  0.12655480  0.23676122     0.20800
H1657       H  0.30939502  0.12428266  0.27616687     0.10600
C1658       C  0.34528662  0.11048556  0.22766504    -0.15400
C1659       C  0.34880188  0.11223279  0.21348706     0.03600
C1660       C  0.36295272  0.13026858  0.20814435    -0.10700
C1661       C  0.37287549  0.14633118  0.21735605    -0.00700
C1662       C  0.36915638  0.14464062  0.23147144    -0.05900
H1663       H  0.33467479  0.09643239  0.23164362     0.06600
H1664       H  0.38368440  0.16040275  0.21359808     0.10000
Br1665     Br  0.30200363  0.13178115  0.24694532    -0.05600
Br1666     Br  0.39571638  0.10801585  0.28451364    -0.02500
Br1667     Br  0.33318130  0.08967943  0.20223792     0.00300
Br1668     Br  0.38290398  0.16795459  0.24302508    -0.04100
C1669       C  0.69916839  0.21470940  0.15036031    -0.11500
C1670       C  0.71759262  0.21964801  0.15952002     0.04000
C1671       C  0.73253319  0.23825253  0.15686543    -0.12000
C1672       C  0.72953168  0.25224804  0.14525220     0.18900
C1673       C  0.71099476  0.24774662  0.13622140    -0.09000
C1674       C  0.69588200  0.22913534  0.13886007    -0.02000
H1675       H  0.74669784  0.24183452  0.16391070     0.05400
C1676       C  0.74681047  0.27069608  0.14270716     0.20800
H1677       H  0.68182114  0.22563247  0.13174438     0.10600
C1678       C  0.76895202  0.26416302  0.13809512    -0.15400
C1679       C  0.78741991  0.27998711  0.13816579     0.03600
C1680       C  0.78382288  0.30290452  0.14305135    -0.10700
C1681       C  0.76113555  0.30979781  0.14674461    -0.00700
C1682       C  0.74272899  0.29386187  0.14668273    -0.05900
H1683       H  0.77209425  0.24632921  0.13494926     0.06600
H1684       H  0.75789660  0.32728644  0.15044296     0.10000
Br1685     Br  0.70616435  0.26611421  0.12005230    -0.05600
Br1686     Br  0.72279423  0.20258945  0.17619368    -0.02500
Br1687     Br  0.81694430  0.26879675  0.13163955     0.00300
Br1688     Br  0.71283248  0.30396190  0.15315611    -0.04100
C1689       C  0.66289863  0.14860036  0.20171883    -0.11500
C1690       C  0.66269974  0.16790217  0.21070605     0.04000
C1691       C  0.66345896  0.16430455  0.22485632    -0.12000
C1692       C  0.66455043  0.14176797  0.23033529     0.18900
C1693       C  0.66460815  0.12247279  0.22140283    -0.09000
C1694       C  0.66405060  0.12602986  0.20723030    -0.02000
H1695       H  0.66357603  0.17922853  0.23165159     0.05400
C1696       C  0.66610015  0.13908882  0.24538180     0.20800
H1697       H  0.66381876  0.11102200  0.20049786     0.10600
C1698       C  0.64778468  0.14717769  0.25362613    -0.15400
C1699       C  0.64923918  0.14635045  0.26795559     0.03600
C1700       C  0.66934531  0.13690616  0.27429859    -0.10700
C1701       C  0.68768837  0.12903770  0.26590497    -0.00700
C1702       C  0.68637089  0.13038839  0.25165000    -0.05900
H1703       H  0.63235274  0.15445919  0.24885756     0.06600
H1704       H  0.70349814  0.12215630  0.27042579     0.10000
Br1705     Br  0.66431899  0.09095679  0.22798992    -0.05600
Br1706     Br  0.66276613  0.19963909  0.20443627    -0.02500
Br1707     Br  0.62329001  0.15888850  0.27795326     0.00300
Br1708     Br  0.71347312  0.12174494  0.24128811    -0.04100
C1709       C  0.45394064  0.14740872  0.16493366    -0.11500
C1710       C  0.46869180  0.12768991  0.16418912     0.04000
C1711       C  0.49286496  0.13058960  0.16416734    -0.12000
C1712       C  0.50290002  0.15277379  0.16521531     0.18900
C1713       C  0.48826140  0.17241414  0.16621754    -0.09000
C1714       C  0.46405060  0.16963322  0.16592192    -0.02000
H1715       H  0.50394806  0.11540650  0.16311816     0.05400
C1716       C  0.52856803  0.15504331  0.16435976     0.20800
H1717       H  0.45307505  0.18493020  0.16669441     0.10600
C1718       C  0.53830477  0.16771635  0.15347202    -0.15400
C1719       C  0.56244614  0.16920763  0.15178039     0.03600
C1720       C  0.57733720  0.15753946  0.16100659    -0.10700
C1721       C  0.56757939  0.14485650  0.17189534    -0.00700
C1722       C  0.54347508  0.14360235  0.17367146    -0.05900
H1723       H  0.52700795  0.17610149  0.14605768     0.06600
H1724       H  0.57879477  0.13591625  0.17914017     0.10000
Br1725     Br  0.50043449  0.20330390  0.16852416    -0.05600
Br1726     Br  0.45731030  0.09636653  0.16242296    -0.02500
Br1727     Br  0.57378839  0.18590088  0.13610682     0.00300
Br1728     Br  0.53196116  0.12641014  0.18913000    -0.04100
C1729       C  0.46686244  0.10091992  0.41064959    -0.11500
C1730       C  0.45700461  0.08265328  0.40290656     0.04000
C1731       C  0.44009812  0.08753355  0.39302804    -0.12000
C1732       C  0.43222747  0.11032110  0.39090069     0.18900
C1733       C  0.44048167  0.12830781  0.39939932    -0.09000
C1734       C  0.45781559  0.12355462  0.40913316    -0.02000
H1735       H  0.43308335  0.07345621  0.38689179     0.05400
C1736       C  0.41555624  0.11456720  0.37963389     0.20800
H1737       H  0.46496421  0.13776652  0.41509790     0.10600
C1738       C  0.39175441  0.11601031  0.38255362    -0.15400
C1739       C  0.37523084  0.11662044  0.37199675     0.03600
C1740       C  0.38252950  0.11579969  0.35812347    -0.10700
C1741       C  0.40654873  0.11542995  0.35529446    -0.00700
C1742       C  0.42297323  0.11462784  0.36589639    -0.05900
H1743       H  0.38596952  0.11596666  0.39312587     0.06600
H1744       H  0.41261583  0.11489412  0.34478797     0.10000
Br1745     Br  0.42924633  0.15961872  0.39770005    -0.05600
Br1746     Br  0.46455592  0.05053961  0.40582036    -0.02500
Br1747     Br  0.34315197  0.11869927  0.37744261     0.00300
Br1748     Br  0.45537889  0.11282423  0.36119124    -0.04100
C1749       C  0.54635282  0.10884084  0.40421608    -0.11500
C1750       C  0.53909780  0.11698770  0.39126601     0.04000
C1751       C  0.55554363  0.12064804  0.38093210    -0.12000
C1752       C  0.57918604  0.11610504  0.38326721     0.18900
C1753       C  0.58649242  0.10793369  0.39614302    -0.09000
C1754       C  0.57012141  0.10452079  0.40654111    -0.02000
H1755       H  0.54989326  0.12699050  0.37102285     0.05400
C1756       C  0.59590367  0.11969704  0.37204665     0.20800
H1757       H  0.57587215  0.09789881  0.41636563     0.10600
C1758       C  0.60721730  0.14121314  0.37078886    -0.15400
C1759       C  0.62295997  0.14521559  0.36010195     0.03600
C1760       C  0.62711052  0.12759112  0.35033143    -0.10700
C1761       C  0.61565758  0.10609091  0.35164672    -0.00700
C1762       C  0.60035559  0.10197257  0.36248545    -0.05900
H1763       H  0.60377489  0.15490799  0.37815513     0.06600
H1764       H  0.61908376  0.09219578  0.34440517     0.10000
Br1765     Br  0.61850451  0.10056276  0.39976305    -0.05600
Br1766     Br  0.50728853  0.12440550  0.38723771    -0.02500
Br1767     Br  0.63744679  0.17527432  0.35906969     0.00300
Br1768     Br  0.58637938  0.07174236  0.36409958    -0.04100
C1769       C  0.50664710  0.11515929  0.52459822    -0.11500
C1770       C  0.48830491  0.10949406  0.51535947     0.04000
C1771       C  0.49048476  0.11440483  0.50137909    -0.12000
C1772       C  0.51054902  0.12497045  0.49620451     0.18900
C1773       C  0.52754962  0.13304751  0.50536047    -0.09000
C1774       C  0.52530974  0.12859706  0.51939697    -0.02000
H1775       H  0.47723430  0.10822516  0.49433943     0.05400
C1776       C  0.51554200  0.12240231  0.48144760     0.20800
H1777       H  0.53908303  0.13497222  0.52590112     0.10600
C1778       C  0.50626533  0.13789457  0.47175995    -0.15400
C1779       C  0.50782175  0.13301047  0.45766576     0.03600
C1780       C  0.51772142  0.11162689  0.45320596    -0.10700
C1781       C  0.53004089  0.09834899  0.46299857    -0.00700
C1782       C  0.52828815  0.10302452  0.47693405    -0.05900
H1783       H  0.49740654  0.15352390  0.47517166     0.06600
H1784       H  0.54070054  0.08369611  0.46003128     0.10000
Br1785     Br  0.55526975  0.14813486  0.49893041    -0.05600
Br1786     Br  0.46071163  0.09281170  0.52059946    -0.02500
Br1787     Br  0.49703892  0.15662294  0.44521037     0.00300
Br1788     Br  0.54189542  0.08106800  0.48948541    -0.04100
C1789       C  0.47327147  0.85084855  0.40793937    -0.11500
C1790       C  0.46503709  0.86457055  0.39685420     0.04000
C1791       C  0.44908106  0.85527229  0.38758766    -0.12000
C1792       C  0.44081768  0.83255078  0.38900694     0.18900
C1793       C  0.44881407  0.81868515  0.39987256    -0.09000
C1794       C  0.46491046  0.82784042  0.40922381    -0.02000
H1795       H  0.44263829  0.86606135  0.37927745     0.05400
C1796       C  0.42258359  0.82483108  0.37942755     0.20800
H1797       H  0.47126241  0.81670140  0.41737732     0.10600
C1798       C  0.42895813  0.81575208  0.36664636    -0.15400
C1799       C  0.41260141  0.81400992  0.35603260     0.03600
C1800       C  0.38951916  0.82194753  0.35815193    -0.10700
C1801       C  0.38290551  0.82908377  0.37137809    -0.00700
C1802       C  0.39922762  0.83065746  0.38192881    -0.05900
H1803       H  0.44695467  0.81109898  0.36472490     0.06600
H1804       H  0.36528442  0.83492080  0.37336070     0.10000
Br1805     Br  0.43817118  0.78732241  0.40224084    -0.05600
Br1806     Br  0.47327168  0.89637105  0.39360029    -0.02500
Br1807     Br  0.42317147  0.80106822  0.33898510     0.00300
Br1808     Br  0.38939448  0.84302396  0.39925384    -0.04100
C1809       C  0.55277203  0.84883568  0.40762603    -0.11500
C1810       C  0.54801962  0.84306331  0.39380210     0.04000
C1811       C  0.56623850  0.84099111  0.38437939    -0.12000
C1812       C  0.58954566  0.84280479  0.38852024     0.18900
C1813       C  0.59442122  0.84596517  0.40256970    -0.09000
C1814       C  0.57617494  0.84943358  0.41190433    -0.02000
H1815       H  0.56211724  0.83808018  0.37367864     0.05400
C1816       C  0.60816172  0.84338320  0.37789379     0.20800
H1817       H  0.58040703  0.85317489  0.42249669     0.10600
C1818       C  0.62264668  0.86302491  0.37712173    -0.15400
C1819       C  0.63907394  0.86546200  0.36663799     0.03600
C1820       C  0.64075046  0.84833722  0.35627117    -0.10700
C1821       C  0.62634822  0.82861934  0.35706088    -0.00700
C1822       C  0.61045902  0.82584665  0.36784176    -0.05900
H1823       H  0.62084106  0.87685407  0.38459938     0.06600
H1824       H  0.62772765  0.81507488  0.34937509     0.10000
Br1825     Br  0.62564783  0.84497587  0.40956549    -0.05600
Br1826     Br  0.51751090  0.83562365  0.38713640    -0.02500
Br1827     Br  0.65762345  0.89330826  0.36677902     0.00300
Br1828     Br  0.59315394  0.79729926  0.36867626    -0.04100
C1829       C  0.51482195  0.04105845  0.42211789    -0.11500
C1830       C  0.52569072  0.03014804  0.41084163     0.04000
C1831       C  0.52403207  0.00594690  0.40925387    -0.12000
C1832       C  0.51232281  0.99221679  0.41895551     0.18900
C1833       C  0.50220887  0.00303179  0.43045449    -0.09000
C1834       C  0.50289312  0.02716463  0.43169086    -0.02000
H1835       H  0.53256454  0.99768147  0.40063296     0.05400
C1836       C  0.51287110  0.96656605  0.41769310     0.20800
H1837       H  0.49428709  0.03505422  0.44040386     0.10600
C1838       C  0.53450560  0.95513261  0.41806234    -0.15400
C1839       C  0.53573822  0.93083001  0.41870893     0.03600
C1840       C  0.51513122  0.91766680  0.41902159    -0.10700
C1841       C  0.49356118  0.92906847  0.41840541    -0.00700
C1842       C  0.49227267  0.95325536  0.41720330    -0.05900
H1843       H  0.55045938  0.96518621  0.41846923     0.06600
H1844       H  0.47759544  0.91916789  0.41936692     0.10000
Br1845     Br  0.48924477  0.98581190  0.44552859    -0.05600
Br1846     Br  0.54489457  0.04666672  0.39804748    -0.02500
Br1847     Br  0.56573698  0.91640001  0.42041887     0.00300
Br1848     Br  0.46202629  0.96716204  0.41504907    -0.04100
C1849       C  0.50552099  0.04164696  0.55293416    -0.11500
C1850       C  0.51917687  0.02696352  0.54452387     0.04000
C1851       C  0.51687330  0.00278794  0.54549105    -0.12000
C1852       C  0.50236879  0.99253972  0.55537281     0.18900
C1853       C  0.49071801  0.00716189  0.56477121    -0.09000
C1854       C  0.49179147  0.03144929  0.56323109    -0.02000
H1855       H  0.52697341  0.99185270  0.53866242     0.05400
C1856       C  0.50113299  0.96663412  0.55607641     0.20800
H1857       H  0.48197963  0.04237972  0.57019484     0.10600
C1858       C  0.52204763  0.95393138  0.55676408    -0.15400
C1859       C  0.52210572  0.92961518  0.55608649     0.03600
C1860       C  0.50091302  0.91737516  0.55550209    -0.10700
C1861       C  0.47994360  0.92985936  0.55485913    -0.00700
C1862       C  0.47991788  0.95430630  0.55476308    -0.05900
H1863       H  0.53853946  0.96303861  0.55734931     0.06600
H1864       H  0.46363946  0.92055604  0.55372127     0.10000
Br1865     Br  0.47498155  0.99501244  0.58057755    -0.05600
Br1866     Br  0.54331563  0.03851616  0.53268380    -0.02500
Br1867     Br  0.55164692  0.91400810  0.55503888     0.00300
Br1868     Br  0.45083155  0.96971738  0.55118109    -0.04100
C1869       C  0.50852706  0.84555756  0.52711069    -0.11500
C1870       C  0.52984894  0.85011902  0.52014262     0.04000
C1871       C  0.53158966  0.84670898  0.50596540    -0.12000
C1872       C  0.51236302  0.83956685  0.49822666     0.18900
C1873       C  0.49171571  0.83353722  0.50503460    -0.09000
C1874       C  0.49000495  0.83620541  0.51926731    -0.02000
H1875       H  0.54744791  0.85179466  0.50074019     0.05400
C1876       C  0.51236078  0.84418560  0.48328229     0.20800
H1877       H  0.47319657  0.83282007  0.52370038     0.10600
C1878       C  0.51457441  0.82618718  0.47364442    -0.15400
C1879       C  0.51441100  0.83098399  0.45947007     0.03600
C1880       C  0.51249163  0.85432608  0.45468888    -0.10700
C1881       C  0.50840728  0.87174771  0.46466325    -0.00700
C1882       C  0.50897650  0.86702639  0.47863177    -0.05900
H1883       H  0.51627544  0.80835271  0.47715522     0.06600
H1884       H  0.50384228  0.88936172  0.46196785     0.10000
Br1885     Br  0.46428348  0.82473150  0.49505505    -0.05600
Br1886     Br  0.55662985  0.86406432  0.52866506    -0.02500
Br1887     Br  0.51569543  0.80469956  0.44732496     0.00300
Br1888     Br  0.50439540  0.89264647  0.49104915    -0.04100
C1889       C  0.66354402  0.86520067  0.12923256    -0.11500
C1890       C  0.68332525  0.87877667  0.12598953     0.04000
C1891       C  0.68243793  0.89443613  0.11499045    -0.12000
C1892       C  0.66217700  0.89683056  0.10707625     0.18900
C1893       C  0.64255416  0.88317012  0.11019975    -0.09000
C1894       C  0.64336963  0.86757343  0.12116425    -0.02000
H1895       H  0.69770907  0.90466557  0.11250081     0.05400
C1896       C  0.66178957  0.91344932  0.09550831     0.20800
H1897       H  0.62797911  0.85740388  0.12346277     0.10600
C1898       C  0.66002320  0.90491447  0.08208679    -0.15400
C1899       C  0.65766597  0.92009827  0.07095222     0.03600
C1900       C  0.65742716  0.94442192  0.07318412    -0.10700
C1901       C  0.66012392  0.95286521  0.08661321    -0.00700
C1902       C  0.66218259  0.93765142  0.09772414    -0.05900
H1903       H  0.65971683  0.88628974  0.08032552     0.06600
H1904       H  0.66024495  0.97145183  0.08854016     0.10000
Br1905     Br  0.61397379  0.88562849  0.10005248    -0.05600
Br1906     Br  0.71245555  0.87594924  0.13552718    -0.02500
Br1907     Br  0.65271329  0.90627009  0.05327939     0.00300
Br1908     Br  0.66404912  0.95077129  0.11577888    -0.04100
C1909       C  0.66283470  0.10499921  0.12552512    -0.11500
C1910       C  0.66847148  0.11125157  0.11190303     0.04000
C1911       C  0.66820729  0.09435622  0.10157558    -0.12000
C1912       C  0.66220474  0.07126267  0.10450734     0.18900
C1913       C  0.65707113  0.06483221  0.11807553    -0.09000
C1914       C  0.65763757  0.08159821  0.12847692    -0.02000
H1915       H  0.67223958  0.09934523  0.09113040     0.05400
C1916       C  0.66002357  0.05446648  0.09314055     0.20800
H1917       H  0.65307302  0.07647639  0.13881612     0.10600
C1918       C  0.67916159  0.04064529  0.08942989    -0.15400
C1919       C  0.67726532  0.02435047  0.07880314     0.03600
C1920       C  0.65600144  0.02193017  0.07171535    -0.10700
C1921       C  0.63692799  0.03576415  0.07545091    -0.00700
C1922       C  0.63883583  0.05204140  0.08603083    -0.05900
H1923       H  0.69545975  0.04229626  0.09495607     0.06600
H1924       H  0.62041315  0.03370371  0.07019847     0.10000
Br1925     Br  0.64804714  0.03362322  0.12267702    -0.05600
Br1926     Br  0.67708265  0.14233226  0.10668051    -0.02500
Br1927     Br  0.70356128  0.00476553  0.07496990     0.00300
Br1928     Br  0.61194989  0.07024699  0.09067903    -0.04100
C1929       C  0.65342780  0.96773730  0.95405685    -0.11500
C1930       C  0.67601077  0.97604178  0.95759058     0.04000
C1931       C  0.68223183  0.97888059  0.97145558    -0.12000
C1932       C  0.66682073  0.97251557  0.98194069     0.18900
C1933       C  0.64561997  0.96191084  0.97849111    -0.09000
C1934       C  0.63950776  0.95893931  0.96479965    -0.02000
H1935       H  0.69907750  0.98611723  0.97405904     0.05400
C1936       C  0.67207950  0.97732554  0.99651706     0.20800
H1937       H  0.62354829  0.94966265  0.96278414     0.10600
C1938       C  0.66431826  0.99832719  0.00212395    -0.15400
C1939       C  0.66135357  0.00086487  0.01628334     0.03600
C1940       C  0.66645937  0.98203060  0.02532271    -0.10700
C1941       C  0.67669027  0.96186534  0.01954141    -0.00700
C1942       C  0.67936500  0.95944181  0.00534395    -0.05900
H1943       H  0.65855285  0.01215630  0.99534975     0.06600
H1944       H  0.68094573  0.94686103  0.02569066     0.10000
Br1945     Br  0.62368547  0.95216213  0.99221147    -0.05600
Br1946     Br  0.69972789  0.98262302  0.94424777    -0.02500
Br1947     Br  0.64753910  0.02976219  0.02204261     0.00300
Br1948     Br  0.69042132  0.93028254  0.99826975    -0.04100
C1949       C  0.37833277  0.86245866  0.13192159    -0.11500
C1950       C  0.37135248  0.85484748  0.11873521     0.04000
C1951       C  0.37431379  0.86943527  0.10736222    -0.12000
C1952       C  0.38359544  0.89180866  0.10889209     0.18900
C1953       C  0.38866812  0.90018817  0.12210057    -0.09000
C1954       C  0.38613090  0.88553123  0.13347831    -0.02000
H1955       H  0.36974652  0.86314967  0.09723781     0.05400
C1956       C  0.38915300  0.90582142  0.09662518     0.20800
H1957       H  0.39120012  0.89192973  0.14348750     0.10600
C1958       C  0.37242743  0.92106292  0.09120462    -0.15400
C1959       C  0.37814216  0.93624218  0.08047709     0.03600
C1960       C  0.40091629  0.93624812  0.07506086    -0.10700
C1961       C  0.41742742  0.92062223  0.08030847    -0.00700
C1962       C  0.41164240  0.90528035  0.09089591    -0.05900
H1963       H  0.35514516  0.92168762  0.09563904     0.06600
H1964       H  0.43500869  0.92066268  0.07635521     0.10000
Br1965     Br  0.39986811  0.93132060  0.12490142    -0.05600
Br1966     Br  0.35706557  0.82509682  0.11552901    -0.02500
Br1967     Br  0.35489687  0.95798570  0.07444759     0.00300
Br1968     Br  0.43519531  0.88439997  0.09754750    -0.04100
C1969       C  0.40438428  0.01192472  0.07750762    -0.11500
C1970       C  0.41979574  0.01972791  0.08787089     0.04000
C1971       C  0.41173327  0.03430415  0.09833194    -0.12000
C1972       C  0.38844672  0.04147844  0.09888339     0.18900
C1973       C  0.37296057  0.03389271  0.08865158    -0.09000
C1974       C  0.38092014  0.01922000  0.07815781    -0.02000
H1975       H  0.42386381  0.04042513  0.10603938     0.05400
C1976       C  0.38122315  0.05767891  0.10993636     0.20800
H1977       H  0.36852725  0.01322231  0.07057452     0.10600
C1978       C  0.37559798  0.08079360  0.10664292    -0.15400
C1979       C  0.37167896  0.09737795  0.11692555     0.03600
C1980       C  0.37360464  0.09091367  0.13088968    -0.10700
C1981       C  0.37796761  0.06742845  0.13409497    -0.00700
C1982       C  0.38188093  0.05094118  0.12380338    -0.05900
H1983       H  0.37490935  0.08611932  0.09599327     0.06600
H1984       H  0.37934408  0.06195842  0.14469248     0.10000
Br1985     Br  0.34069519  0.04262180  0.08883621    -0.05600
Br1986     Br  0.45237486  0.01286306  0.08825764    -0.02500
Br1987     Br  0.36362231  0.12830680  0.11106259     0.00300
Br1988     Br  0.38853435  0.01949696  0.12922565    -0.04100
C1989       C  0.59368902  0.98012765  0.05403394    -0.11500
C1990       C  0.57786547  0.99285673  0.04582383     0.04000
C1991       C  0.55389209  0.99004736  0.04762462    -0.12000
C1992       C  0.54491209  0.97563916  0.05795828     0.18900
C1993       C  0.56061430  0.96312848  0.06632074    -0.09000
C1994       C  0.58469623  0.96539519  0.06425869    -0.02000
H1995       H  0.54206966  0.99969554  0.04107131     0.05400
C1996       C  0.51915395  0.97430855  0.05966947     0.20800
H1997       H  0.59657192  0.95535213  0.07072733     0.10600
C1998       C  0.50759450  0.95294134  0.05779071    -0.15400
C1999       C  0.48314870  0.95185589  0.05759241     0.03600
C2000       C  0.46986408  0.97231528  0.05929064    -0.10700
C2001       C  0.48144880  0.99348920  0.06104460    -0.00700
C2002       C  0.50570495  0.99466961  0.06158983    -0.05900
H2003       H  0.51751473  0.93734945  0.05592322     0.06600
H2004       H  0.47128000  0.00985107  0.06155371     0.10000
Br2005     Br  0.55015975  0.94344972  0.08096452    -0.05600
Br2006     Br  0.58742042  0.01604320  0.03283893    -0.02500
Br2007     Br  0.46874746  0.92243548  0.05384554     0.00300
Br2008     Br  0.51955974  0.02458675  0.06486842    -0.04100
C2009       C  0.45964803  0.97498292  0.91819486    -0.11500
C2010       C  0.47352851  0.99502835  0.91681775     0.04000
C2011       C  0.49751249  0.99279921  0.91492887    -0.12000
C2012       C  0.50844370  0.97093189  0.91578866     0.18900
C2013       C  0.49453427  0.95087047  0.91757595    -0.09000
C2014       C  0.47026536  0.95299580  0.91819438    -0.02000
H2015       H  0.50797646  0.00843704  0.91411887     0.05400
C2016       C  0.53411960  0.97030215  0.91753614     0.20800
H2017       H  0.45981392  0.93762780  0.92010919     0.10600
C2018       C  0.54392452  0.98422504  0.92784470    -0.15400
C2019       C  0.56784576  0.98447557  0.93017480     0.03600
C2020       C  0.58251540  0.96935543  0.92269268    -0.10700
C2021       C  0.57290678  0.95603498  0.91201842    -0.00700
C2022       C  0.54898182  0.95687747  0.90916383    -0.05900
H2023       H  0.53288075  0.99540184  0.93400438     0.06600
H2024       H  0.58405503  0.94515001  0.90576175     0.10000
Br2025     Br  0.50756959  0.92092106  0.92186698    -0.05600
Br2026     Br  0.46153339  0.02574874  0.92005335    -0.02500
Br2027     Br  0.57935035  0.00799418  0.94248618     0.00300
Br2028     Br  0.53786769  0.94093879  0.89316315    -0.04100
C2029       C  0.40015612  0.98112309  0.95594625    -0.11500
C2030       C  0.37793364  0.97720063  0.96192157     0.04000
C2031       C  0.37527824  0.97745686  0.97627888    -0.12000
C2032       C  0.39412188  0.98276880  0.98488268     0.18900
C2033       C  0.41537739  0.98931575  0.97898498    -0.09000
C2034       C  0.41807531  0.98895626  0.96479482    -0.02000
H2035       H  0.35851319  0.97332773  0.98074412     0.05400
C2036       C  0.39248208  0.97994870  0.99995137     0.20800
H2037       H  0.43442758  0.99535756  0.96088887     0.10600
C2038       C  0.40143484  0.95955747  0.00573535    -0.15400
C2039       C  0.40538305  0.95774386  0.01983348     0.03600
C2040       C  0.40030993  0.97677399  0.02870476    -0.10700
C2041       C  0.38970123  0.99667773  0.02280987    -0.00700
C2042       C  0.38591620  0.99834130  0.00861855    -0.05900
H2043       H  0.40665803  0.94536086  0.99909888     0.06600
H2044       H  0.38523804  0.01164713  0.02886726     0.10000
Br2045     Br  0.44153876  0.99861799  0.98999793    -0.05600
Br2046     Br  0.35025737  0.97263869  0.95121502    -0.02500
Br2047     Br  0.41963738  0.92914446  0.02582197     0.00300
Br2048     Br  0.37321847  0.02669529  0.00136916    -0.04100
C2049       C  0.71737705  0.19187043  0.82420634    -0.11500
C2050       C  0.73968107  0.18693975  0.82966058     0.04000
C2051       C  0.75685644  0.20421456  0.82969813    -0.12000
C2052       C  0.75223760  0.22643916  0.82444592     0.18900
C2053       C  0.73004191  0.23150859  0.81913602    -0.09000
C2054       C  0.71280311  0.21433680  0.81911922    -0.02000
H2055       H  0.77394689  0.20030340  0.83383652     0.05400
C2056       C  0.77112147  0.24378478  0.82404673     0.20800
H2057       H  0.69588863  0.21844707  0.81481894     0.10600
C2058       C  0.78722600  0.24286763  0.81330274    -0.15400
C2059       C  0.80523264  0.25914797  0.81239257     0.03600
C2060       C  0.80727101  0.27679949  0.82240539    -0.10700
C2061       C  0.79106395  0.27764216  0.83318109    -0.00700
C2062       C  0.77320468  0.26115065  0.83412690    -0.05900
H2063       H  0.78556786  0.22957120  0.80548083     0.06600
H2064       H  0.79241232  0.29104447  0.84095564     0.10000
Br2065     Br  0.72277722  0.26140865  0.81143633    -0.05600
Br2066     Br  0.74764484  0.15750875  0.83776985    -0.02500
Br2067     Br  0.82533587  0.25722626  0.79670299     0.00300
Br2068     Br  0.75223371  0.26269403  0.84939192    -0.04100
C2069       C  0.64661540  0.00902623  0.90783608    -0.11500
C2070       C  0.62909921  0.02046913  0.90022183     0.04000
C2071       C  0.63523445  0.03646232  0.89006889    -0.12000
C2072       C  0.65863821  0.04119589  0.88714510     0.18900
C2073       C  0.67617338  0.03034699  0.89495901    -0.09000
C2074       C  0.67007101  0.01450093  0.90526746    -0.02000
H2075       H  0.62163485  0.04505950  0.88424166     0.05400
C2076       C  0.66403433  0.05699459  0.87560286     0.20800
H2077       H  0.68374002  0.00580483  0.91098623     0.10600
C2078       C  0.67276195  0.07935524  0.87820998    -0.15400
C2079       C  0.67530139  0.09558805  0.86757955     0.03600
C2080       C  0.66876426  0.08952375  0.85404785    -0.10700
C2081       C  0.66126188  0.06666657  0.85142883    -0.00700
C2082       C  0.65879616  0.05052335  0.86204383    -0.05900
H2083       H  0.67709861  0.08436805  0.88861119     0.06600
H2084       H  0.65638503  0.06152163  0.84113532     0.10000
Br2085     Br  0.70857118  0.03557383  0.89136540    -0.05600
Br2086     Br  0.59650720  0.01594467  0.90337253    -0.02500
Br2087     Br  0.68828537  0.12537807  0.87223463     0.00300
Br2088     Br  0.64778032  0.01988606  0.85757933    -0.04100
C2089       C  0.33576375  0.20541055  0.82627148    -0.11500
C2090       C  0.31460325  0.20317082  0.81891967     0.04000
C2091       C  0.29835099  0.22132065  0.81908415    -0.12000
C2092       C  0.30262577  0.24184917  0.82640597     0.18900
C2093       C  0.32332031  0.24393931  0.83402912    -0.09000
C2094       C  0.33974784  0.22589956  0.83382263    -0.02000
H2095       H  0.28238563  0.21960206  0.81323011     0.05400
C2096       C  0.28506608  0.26067729  0.82583306     0.20800
H2097       H  0.35570647  0.22790559  0.83963573     0.10600
C2098       C  0.26361578  0.25734203  0.83235625    -0.15400
C2099       C  0.24558082  0.27355439  0.83091640     0.03600
C2100       C  0.24878284  0.29354028  0.82266355    -0.10700
C2101       C  0.27060989  0.29718842  0.81649573    -0.00700
C2102       C  0.28862736  0.28091319  0.81795737    -0.05900
H2103       H  0.26082150  0.24185823  0.83849903     0.06600
H2104       H  0.27346243  0.31239388  0.81014367     0.10000
Br2105     Br  0.32962799  0.27084162  0.84506877    -0.05600
Br2106     Br  0.30712699  0.17671243  0.80768850    -0.02500
Br2107     Br  0.21748569  0.26760535  0.84092760     0.00300
Br2108     Br  0.31730051  0.28640844  0.80839452    -0.04100
C2109       C  0.46538531  0.16451887  0.82821552    -0.11500
C2110       C  0.47865550  0.14834428  0.83586078     0.04000
C2111       C  0.50295610  0.14982621  0.83593596    -0.12000
C2112       C  0.51443931  0.16742180  0.82866915     0.18900
C2113       C  0.50126384  0.18457116  0.82185597    -0.09000
C2114       C  0.47686900  0.18309399  0.82170824    -0.02000
H2115       H  0.51300390  0.13675740  0.84136174     0.05400
C2116       C  0.53994187  0.16560201  0.82693145     0.20800
H2117       H  0.46694874  0.19586249  0.81597141     0.10600
C2118       C  0.54840045  0.15213822  0.81606870    -0.15400
C2119       C  0.57219574  0.14766604  0.81466406     0.03600
C2120       C  0.58815651  0.15685924  0.82428921    -0.10700
C2121       C  0.57968767  0.17112752  0.83490394    -0.00700
C2122       C  0.55572527  0.17530900  0.83635872    -0.05900
H2123       H  0.53629364  0.14467303  0.80875535     0.06600
H2124       H  0.59164218  0.17841119  0.84235609     0.10000
Br2125     Br  0.51600266  0.20961395  0.81218757    -0.05600
Br2126     Br  0.46462501  0.12417160  0.84667735    -0.02500
Br2127     Br  0.58156926  0.12939824  0.79911038     0.00300
Br2128     Br  0.54513375  0.19361825  0.85155108    -0.04100
C2129       C  0.38101023  0.10488422  0.85705593    -0.11500
C2130       C  0.38522128  0.11165343  0.87083258     0.04000
C2131       C  0.38568142  0.09483496  0.88123240    -0.12000
C2132       C  0.38227517  0.07125605  0.87826169     0.18900
C2133       C  0.37732143  0.06448984  0.86473283    -0.09000
C2134       C  0.37661566  0.08120713  0.85430241    -0.02000
H2135       H  0.38977329  0.10005040  0.89163358     0.05400
C2136       C  0.38684236  0.05370400  0.88900073     0.20800
H2137       H  0.37330520  0.07547118  0.84390924     0.10600
C2138       C  0.36940343  0.04758769  0.89839343    -0.15400
C2139       C  0.37340211  0.03026895  0.90829284     0.03600
C2140       C  0.39523276  0.01882375  0.90882129    -0.10700
C2141       C  0.41240002  0.02499999  0.89925409    -0.00700
C2142       C  0.40857383  0.04252105  0.88963567    -0.05900
H2143       H  0.35250584  0.05595209  0.89782302     0.06600
H2144       H  0.42900961  0.01611905  0.89916988     0.10000
Br2145     Br  0.37261591  0.03238495  0.85999402    -0.05600
Br2146     Br  0.39215764  0.14302211  0.87634619    -0.02500
Br2147     Br  0.34765681  0.02140269  0.91969680     0.00300
Br2148     Br  0.43364491  0.05067568  0.87755029    -0.04100
C2149       C  0.19891390  0.25118483  0.64999307    -0.11500
C2150       C  0.19604724  0.22867753  0.65569489     0.04000
C2151       C  0.21465364  0.21293544  0.65566053    -0.12000
C2152       C  0.23621846  0.21896831  0.64999258     0.18900
C2153       C  0.23881902  0.24084632  0.64366826    -0.09000
C2154       C  0.22035668  0.25681575  0.64384487    -0.02000
H2155       H  0.21248126  0.19602361  0.66043257     0.05400
C2156       C  0.25574900  0.20223261  0.65115112     0.20800
H2157       H  0.22284610  0.27378530  0.63920272     0.10600
C2158       C  0.25447225  0.18097545  0.64413360    -0.15400
C2159       C  0.27171758  0.16393063  0.64577651     0.03600
C2160       C  0.29075981  0.16806260  0.65467907    -0.10700
C2161       C  0.29207146  0.18954175  0.66153998    -0.00700
C2162       C  0.27472318  0.20642967  0.65996051    -0.05900
H2163       H  0.23984180  0.17757727  0.63739633     0.06600
H2164       H  0.30634178  0.19300639  0.66852948     0.10000
Br2165     Br  0.26709239  0.24945627  0.63449525    -0.05600
Br2166     Br  0.16797504  0.21850485  0.66456852    -0.02500
Br2167     Br  0.26829644  0.13588571  0.63522961     0.00300
Br2168     Br  0.27701291  0.23426054  0.67077068    -0.04100
C2169       C  0.38019635  0.13731839  0.77910837    -0.11500
C2170       C  0.38389660  0.11519955  0.77310964     0.04000
C2171       C  0.37983468  0.11195827  0.75905840    -0.12000
C2172       C  0.37222947  0.13043672  0.75077900     0.18900
C2173       C  0.36824953  0.15237151  0.75674933    -0.09000
C2174       C  0.37233965  0.15568880  0.77074624    -0.02000
H2175       H  0.38297178  0.09502584  0.75451338     0.05400
C2176       C  0.36852710  0.12664700  0.73592250     0.20800
H2177       H  0.36913351  0.17272356  0.77513604     0.10600
C2178       C  0.34792947  0.11609608  0.73146076    -0.15400
C2179       C  0.34324184  0.11324392  0.71747032     0.03600
C2180       C  0.35941961  0.12128330  0.70752211    -0.10700
C2181       C  0.38038414  0.13133686  0.71214907    -0.00700
C2182       C  0.38501988  0.13392927  0.72617959    -0.05900
H2183       H  0.33529364  0.11021750  0.73893932     0.06600
H2184       H  0.39321900  0.13736918  0.70484727     0.10000
Br2185     Br  0.35692109  0.17820092  0.74617231    -0.05600
Br2186     Br  0.39588788  0.08915558  0.78325350    -0.02500
Br2187     Br  0.31446348  0.09787694  0.71304234     0.00300
Br2188     Br  0.41417974  0.14729948  0.73168743    -0.04100
C2189       C  0.39293579  0.11898940  0.62893819    -0.11500
C2190       C  0.39461573  0.09901514  0.62053950     0.04000
C2191       C  0.41036339  0.09860138  0.60963944    -0.12000
C2192       C  0.42449454  0.11787031  0.60674344     0.18900
C2193       C  0.42253732  0.13802171  0.61492083    -0.09000
C2194       C  0.40710920  0.13831254  0.62606719    -0.02000
H2195       H  0.41170912  0.08304173  0.60340065     0.05400
C2196       C  0.44068593  0.11638475  0.59495001     0.20800
H2197       H  0.40575362  0.15387448  0.63229257     0.10600
C2198       C  0.43142816  0.11370307  0.58173360    -0.15400
C2199       C  0.44591416  0.10966649  0.57043893     0.03600
C2200       C  0.47029369  0.10836819  0.57226325    -0.10700
C2201       C  0.47951245  0.11160895  0.58547899    -0.00700
C2202       C  0.46499845  0.11529703  0.59677505    -0.05900
H2203       H  0.41272460  0.11404504  0.58027286     0.06600
H2204       H  0.49815797  0.11073356  0.58711509     0.10000
Br2205     Br  0.43957760  0.16588268  0.61079617    -0.05600
Br2206     Br  0.37683960  0.07119286  0.62382577    -0.02500
Br2207     Br  0.43098739  0.10396035  0.55319604     0.00300
Br2208     Br  0.47920760  0.11679727  0.61456223    -0.04100
C2209       C  0.20079063  0.69418870  0.65561738    -0.11500
C2210       C  0.20484423  0.70500152  0.64284918     0.04000
C2211       C  0.22160622  0.72259501  0.64177011    -0.12000
C2212       C  0.23462619  0.72939256  0.65322998     0.18900
C2213       C  0.23140132  0.71785068  0.66580407    -0.09000
C2214       C  0.21464534  0.70031424  0.66690719    -0.02000
H2215       H  0.22431019  0.73119561  0.63201665     0.05400
C2216       C  0.25036344  0.74958374  0.65226204     0.20800
H2217       H  0.21184955  0.69203433  0.67675582     0.10600
C2218       C  0.24120690  0.77190316  0.65436143    -0.15400
C2219       C  0.25579821  0.79136074  0.65519509     0.03600
C2220       C  0.28023706  0.78850045  0.65404574    -0.10700
C2221       C  0.28912069  0.76609796  0.65126331    -0.00700
C2222       C  0.27441209  0.74678269  0.65031278    -0.05900
H2223       H  0.22260493  0.77408432  0.65576792     0.06600
H2224       H  0.30769163  0.76343502  0.65003886     0.10000
Br2225     Br  0.24881959  0.72624839  0.68185061    -0.05600
Br2226     Br  0.18878617  0.69574513  0.62648064    -0.02500
Br2227     Br  0.24088980  0.82078155  0.65852833     0.00300
Br2228     Br  0.28786630  0.71682397  0.64666375    -0.04100
C2229       C  0.32024026  0.91877520  0.65865539    -0.11500
C2230       C  0.31631041  0.93054461  0.64617416     0.04000
C2231       C  0.31691708  0.95493428  0.64583296    -0.12000
C2232       C  0.32128253  0.96769905  0.65780620     0.18900
C2233       C  0.32436057  0.95597472  0.67031864    -0.09000
C2234       C  0.32397792  0.93169752  0.67065347    -0.02000
H2235       H  0.31473082  0.96394294  0.63615357     0.05400
C2236       C  0.32416629  0.99314144  0.65712598     0.20800
H2237       H  0.32706373  0.92283475  0.68030401     0.10600
C2238       C  0.30518184  0.00758137  0.66006474    -0.15400
C2239       C  0.30804728  0.03169032  0.66133877     0.03600
C2240       C  0.33039048  0.04171399  0.65952969    -0.10700
C2241       C  0.34921681  0.02704747  0.65620508    -0.00700
C2242       C  0.34626910  0.00298936  0.65505971    -0.05900
H2243       H  0.28819957  0.99992785  0.66187626     0.06600
H2244       H  0.36646580  0.03424391  0.65467209     0.10000
Br2245     Br  0.33017165  0.97250294  0.68706895    -0.05600
Br2246     Br  0.31243581  0.91422284  0.62916246    -0.02500
Br2247     Br  0.28093962  0.04923555  0.66650230     0.00300
Br2248     Br  0.37310221  0.98404319  0.65134137    -0.04100
C2249       C  0.38044768  0.83993768  0.62672752    -0.11500
C2250       C  0.40493600  0.84125362  0.62831560     0.04000
C2251       C  0.41930275  0.84193920  0.61673454    -0.12000
C2252       C  0.40986166  0.84141671  0.60350529     0.18900
C2253       C  0.38566328  0.83936065  0.60182914    -0.09000
C2254       C  0.37119602  0.83866720  0.61335665    -0.02000
H2255       H  0.43796589  0.84368998  0.61804340     0.05400
C2256       C  0.42546780  0.84519889  0.59169628     0.20800
H2257       H  0.35255084  0.83745435  0.61180900     0.10600
C2258       C  0.43750246  0.82634363  0.58592683    -0.15400
C2259       C  0.45421392  0.82996305  0.57567790     0.03600
C2260       C  0.45867261  0.85276951  0.57090905    -0.10700
C2261       C  0.44629331  0.87149085  0.57657492    -0.00700
C2262       C  0.42992628  0.86788548  0.58693535    -0.05900
H2263       H  0.43454849  0.80890108  0.58979754     0.06600
H2264       H  0.44992403  0.88911328  0.57322171     0.10000
Br2265     Br  0.37170229  0.83808772  0.58397616    -0.05600
Br2266     Br  0.42014803  0.84376545  0.64577743    -0.02500
Br2267     Br  0.47223537  0.80359965  0.56981435     0.00300
Br2268     Br  0.41513106  0.89459372  0.59492751    -0.04100
C2269       C  0.72527321  0.77612412  0.65458645    -0.11500
C2270       C  0.72995740  0.76152458  0.66591965     0.04000
C2271       C  0.74742218  0.74458946  0.66505754    -0.12000
C2272       C  0.76060002  0.74195971  0.65309318     0.18900
C2273       C  0.75578854  0.75622162  0.64169118    -0.09000
C2274       C  0.73833695  0.77327846  0.64252938    -0.02000
H2275       H  0.75127313  0.73389526  0.67393219     0.05400
C2276       C  0.78021639  0.72524093  0.65310666     0.20800
H2277       H  0.73494624  0.78432255  0.63374540     0.10600
C2278       C  0.77576835  0.70133007  0.65191471    -0.15400
C2279       C  0.79393283  0.68502159  0.65263045     0.03600
C2280       C  0.81714969  0.69268486  0.65461262    -0.10700
C2281       C  0.82141794  0.71673535  0.65568090    -0.00700
C2282       C  0.80322950  0.73289830  0.65506606    -0.05900
H2283       H  0.75803345  0.69533445  0.65047474     0.06600
H2284       H  0.83896402  0.72305479  0.65736490     0.10000
Br2285     Br  0.77271823  0.75293213  0.62486089    -0.05600
Br2286     Br  0.71475480  0.76536626  0.68330528    -0.02500
Br2287     Br  0.78566476  0.65281414  0.65044851     0.00300
Br2288     Br  0.81049329  0.76522656  0.65761998    -0.04100
C2289       C  0.61696538  0.82903478  0.63011686    -0.11500
C2290       C  0.59299684  0.83002939  0.63363345     0.04000
C2291       C  0.57616263  0.83286284  0.62333118    -0.12000
C2292       C  0.58261639  0.83468839  0.60952912     0.18900
C2293       C  0.60629188  0.83339992  0.60598310    -0.09000
C2294       C  0.62311539  0.83039930  0.61617335    -0.02000
H2295       H  0.55793681  0.83410929  0.62611768     0.05400
C2296       C  0.56478848  0.83994988  0.59903207     0.20800
H2297       H  0.64124161  0.82989903  0.61312977     0.10600
C2298       C  0.55586032  0.86256353  0.59824073    -0.15400
C2299       C  0.54090441  0.86922197  0.58760435     0.03600
C2300       C  0.53466925  0.85287698  0.57728383    -0.10700
C2301       C  0.54288759  0.82982068  0.57862597    -0.00700
C2302       C  0.55776113  0.82333015  0.58932961    -0.05900
H2303       H  0.56117334  0.87537738  0.60578106     0.06600
H2304       H  0.53768629  0.81659519  0.57132089     0.10000
Br2305     Br  0.61665291  0.83733922  0.58742558    -0.05600
Br2306     Br  0.58168837  0.82850044  0.65213274    -0.02500
Br2307     Br  0.53143801  0.90127577  0.58800711     0.00300
Br2308     Br  0.56808368  0.79159026  0.59034508    -0.04100
C2309       C  0.81804461  0.24651087  0.65125743    -0.11500
C2310       C  0.79600624  0.24925755  0.65762425     0.04000
C2311       C  0.77902598  0.23195873  0.65616402    -0.12000
C2312       C  0.78340707  0.21185527  0.64848231     0.18900
C2313       C  0.80475193  0.20956647  0.64156747    -0.09000
C2314       C  0.82184314  0.22673806  0.64301711    -0.02000
H2315       H  0.76255502  0.23379217  0.66148097     0.05400
C2316       C  0.76628993  0.19267637  0.64884769     0.20800
H2317       H  0.83832968  0.22438001  0.63781122     0.10600
C2318       C  0.74515792  0.19478139  0.64172389    -0.15400
C2319       C  0.72810074  0.17739579  0.64267918     0.03600
C2320       C  0.73226740  0.15745473  0.65079915    -0.10700
C2321       C  0.75359647  0.15528631  0.65770830    -0.00700
C2322       C  0.77035890  0.17283505  0.65697887    -0.05900
H2323       H  0.74186701  0.21008834  0.63550841     0.06600
H2324       H  0.75687393  0.14028856  0.66417372     0.10000
Br2325     Br  0.81138442  0.18308148  0.63022754    -0.05600
Br2326     Br  0.78791049  0.27522286  0.66909837    -0.02500
Br2327     Br  0.69989906  0.18142414  0.63235917     0.00300
Br2328     Br  0.79783020  0.16971473  0.66805880    -0.04100
C2329       C  0.67442270  0.11042227  0.70389167    -0.11500
C2330       C  0.69292532  0.10438401  0.71289521     0.04000
C2331       C  0.69026260  0.10713754  0.72707240    -0.12000
C2332       C  0.66939926  0.11544224  0.73269895     0.18900
C2333       C  0.65093074  0.12130816  0.72382075    -0.09000
C2334       C  0.65358109  0.11888305  0.70961901    -0.02000
H2335       H  0.70469976  0.10289085  0.73379264     0.05400
C2336       C  0.66771373  0.11884419  0.74777396     0.20800
H2337       H  0.63908050  0.12345705  0.70303258     0.10600
C2338       C  0.66490760  0.14144150  0.75293620    -0.15400
C2339       C  0.66389934  0.14563936  0.76704426     0.03600
C2340       C  0.66601049  0.12691961  0.77643362    -0.10700
C2341       C  0.66910495  0.10427676  0.77123155    -0.00700
C2342       C  0.66981669  0.10013407  0.75706442    -0.05900
H2343       H  0.66371953  0.15601190  0.74590133     0.06600
H2344       H  0.67057489  0.08965345  0.77819769     0.10000
Br2345     Br  0.62139639  0.13189419  0.73059845    -0.05600
Br2346     Br  0.72259911  0.09269267  0.70687732    -0.02500
Br2347     Br  0.66077027  0.17762599  0.77257987     0.00300
Br2348     Br  0.67269728  0.06853293  0.75088066    -0.04100
C2349       C  0.69183512  0.02936618  0.65351466    -0.11500
C2350       C  0.71174500  0.01738541  0.65827986     0.04000
C2351       C  0.71260478  0.99305104  0.65747313    -0.12000
C2352       C  0.69404969  0.98047665  0.65179874     0.18900
C2353       C  0.67475294  0.99247205  0.64641006    -0.09000
C2354       C  0.67367650  0.01670611  0.64739771    -0.02000
H2355       H  0.72736113  0.98382995  0.66178930     0.05400
C2356       C  0.69346315  0.95497302  0.65339852     0.20800
H2357       H  0.65840069  0.02568752  0.64353744     0.10600
C2358       C  0.68268717  0.94584814  0.66506577    -0.15400
C2359       C  0.68056397  0.92185245  0.66689985     0.03600
C2360       C  0.68918328  0.90642006  0.65681879    -0.10700
C2361       C  0.70082729  0.91563637  0.64534714    -0.00700
C2362       C  0.70294723  0.93979356  0.64357725    -0.05900
H2363       H  0.67573883  0.95753936  0.67277143     0.06600
H2364       H  0.70763057  0.90408232  0.63753632     0.10000
Br2365     Br  0.64916017  0.97634853  0.63805461    -0.05600
Br2366     Br  0.73717651  0.03292331  0.66718436    -0.02500
Br2367     Br  0.66655975  0.91147660  0.68370656     0.00300
Br2368     Br  0.71820850  0.95146995  0.62751527    -0.04100
C2369       C  0.62873677  0.10819385  0.62636338    -0.11500
C2370       C  0.60435536  0.10694151  0.62854819     0.04000
C2371       C  0.58914100  0.10580070  0.61732389    -0.12000
C2372       C  0.59759136  0.10582826  0.60386023     0.18900
C2373       C  0.62168600  0.10741595  0.60159959    -0.09000
C2374       C  0.63697656  0.10858058  0.61275290    -0.02000
H2375       H  0.57055248  0.10460020  0.61910132     0.05400
C2376       C  0.58096592  0.10386729  0.59232788     0.20800
H2377       H  0.65549512  0.10948214  0.61070879     0.10600
C2378       C  0.57460089  0.12389411  0.58500806    -0.15400
C2379       C  0.55796889  0.12283316  0.57451075     0.03600
C2380       C  0.54766602  0.10123077  0.57104378    -0.10700
C2381       C  0.55443056  0.08117759  0.57828818    -0.00700
C2382       C  0.57080313  0.08237459  0.58887884    -0.05900
H2383       H  0.58216202  0.14054759  0.58774206     0.06600
H2384       H  0.54684020  0.06444409  0.57575914     0.10000
Br2385     Br  0.63448094  0.10716616  0.58344196    -0.05600
Br2386     Br  0.59031120  0.10585342  0.64638632    -0.02500
Br2387     Br  0.54870722  0.15183448  0.56632532     0.00300
Br2388     Br  0.57872772  0.05422943  0.59840358    -0.04100
C2389       C  0.71335657  0.74727769  0.82756492    -0.11500
C2390       C  0.73480910  0.75009447  0.82056677     0.04000
C2391       C  0.75175467  0.73259151  0.82128209    -0.12000
C2392       C  0.74802881  0.71242293  0.82902628     0.18900
C2393       C  0.72752436  0.71032906  0.83679186    -0.09000
C2394       C  0.71030078  0.72751065  0.83589318    -0.02000
H2395       H  0.76768329  0.73439345  0.81542277     0.05400
C2396       C  0.76503142  0.69316035  0.82811376     0.20800
H2397       H  0.69432522  0.72524224  0.84163828     0.10600
C2398       C  0.78631636  0.69476249  0.83507859    -0.15400
C2399       C  0.80307604  0.67710631  0.83392351     0.03600
C2400       C  0.79833812  0.65714258  0.82591057    -0.10700
C2401       C  0.77695279  0.65567569  0.81895802    -0.00700
C2402       C  0.76060267  0.67368481  0.81976585    -0.05900
H2403       H  0.78996600  0.70990948  0.84134047     0.06600
H2404       H  0.77326754  0.64082595  0.81246823     0.10000
Br2405     Br  0.72238126  0.68430792  0.84873915    -0.05600
Br2406     Br  0.74198644  0.77647660  0.80921131    -0.02500
Br2407     Br  0.83174729  0.68114102  0.84377001     0.00300
Br2408     Br  0.73317194  0.67175396  0.80856121    -0.04100
C2409       C  0.66178390  0.80688336  0.77669988    -0.11500
C2410       C  0.66908328  0.78895289  0.76771045     0.04000
C2411       C  0.67018878  0.79310153  0.75358712    -0.12000
C2412       C  0.66429105  0.81489879  0.74815024     0.18900
C2413       C  0.65744126  0.83290824  0.75704660    -0.09000
C2414       C  0.65630047  0.82885698  0.77119102    -0.02000
H2415       H  0.67580653  0.77927382  0.74679205     0.05400
C2416       C  0.66544611  0.81847813  0.73315599     0.20800
H2417       H  0.65074825  0.84285044  0.77787736     0.10600
C2418       C  0.64541318  0.81509020  0.72520757    -0.15400
C2419       C  0.64595102  0.81786314  0.71093689     0.03600
C2420       C  0.66700765  0.82424033  0.70434225    -0.10700
C2421       C  0.68699650  0.82775137  0.71247365    -0.00700
C2422       C  0.68635870  0.82481355  0.72670411    -0.05900
H2423       H  0.62925202  0.81019850  0.73015594     0.06600
H2424       H  0.70337153  0.83255170  0.70775249     0.10000
Br2425     Br  0.64957970  0.86326794  0.75025885    -0.05600
Br2426     Br  0.67909193  0.75883495  0.77400000    -0.02500
Br2427     Br  0.61709487  0.81301971  0.70137893     0.00300
Br2428     Br  0.71447233  0.82949928  0.73697472    -0.04100
C2429       C  0.64633246  0.92924599  0.90736995    -0.11500
C2430       C  0.66603633  0.92889123  0.89883446     0.04000
C2431       C  0.66793821  0.91198450  0.88855849    -0.12000
C2432       C  0.65032688  0.89534410  0.88663920     0.18900
C2433       C  0.63073947  0.89553750  0.89533466    -0.09000
C2434       C  0.62883516  0.91250475  0.90557063    -0.02000
H2435       H  0.68307688  0.91194757  0.88194146     0.05400
C2436       C  0.65263993  0.87808949  0.87545148     0.20800
H2437       H  0.61350410  0.91284810  0.91203242     0.10600
C2438       C  0.65741368  0.85477962  0.87866147    -0.15400
C2439       C  0.65973737  0.83798992  0.86833832     0.03600
C2440       C  0.65733085  0.84451232  0.85440320    -0.10700
C2441       C  0.65292468  0.86802627  0.85126873    -0.00700
C2442       C  0.65044750  0.88469170  0.86162592    -0.05900
H2443       H  0.65937849  0.84963631  0.88929216     0.06600
H2444       H  0.65072536  0.87342788  0.84071003     0.10000
Br2445     Br  0.60574008  0.87366745  0.89322783    -0.05600
Br2446     Br  0.69027890  0.95163460  0.90058907    -0.02500
Br2447     Br  0.66697999  0.80681902  0.87411933     0.00300
Br2448     Br  0.64292300  0.91605431  0.85643447    -0.04100
C2449       C  0.32908298  0.75782366  0.82839677    -0.11500
C2450       C  0.30795999  0.76357662  0.83513263     0.04000
C2451       C  0.28987324  0.74723262  0.83578390    -0.12000
C2452       C  0.29241070  0.72508751  0.82997238     0.18900
C2453       C  0.31346184  0.71913564  0.82351633    -0.09000
C2454       C  0.33156515  0.73534508  0.82283460    -0.02000
H2455       H  0.27367218  0.75184904  0.84079159     0.05400
C2456       C  0.27268031  0.70860220  0.83013908     0.20800
H2457       H  0.34741840  0.73049109  0.81754535     0.10600
C2458       C  0.25499336  0.71107096  0.82037240    -0.15400
C2459       C  0.23744916  0.69430684  0.81908660     0.03600
C2460       C  0.23752506  0.67442649  0.82772039    -0.10700
C2461       C  0.25488763  0.67255901  0.83785114    -0.00700
C2462       C  0.27223224  0.68953921  0.83916982    -0.05900
H2463       H  0.25529502  0.72576877  0.81339704     0.06600
H2464       H  0.25509820  0.65775001  0.84472988     0.10000
Br2465     Br  0.31780040  0.68938041  0.81491309    -0.05600
Br2466     Br  0.30242443  0.79307909  0.84384566    -0.02500
Br2467     Br  0.21513731  0.69920365  0.80466588     0.00300
Br2468     Br  0.29516536  0.68604000  0.85332877    -0.04100
C2469       C  0.36436908  0.82543625  0.77671827    -0.11500
C2470       C  0.34736910  0.81213593  0.76969302     0.04000
C2471       C  0.34376023  0.81546990  0.75563046    -0.12000
C2472       C  0.35663836  0.83201066  0.74828548     0.18900
C2473       C  0.37277707  0.84605703  0.75535619    -0.09000
C2474       C  0.37649671  0.84273511  0.76943974    -0.02000
H2475       H  0.33086191  0.80500514  0.75035555     0.05400
C2476       C  0.35295665  0.83424264  0.73327402     0.20800
H2477       H  0.38951670  0.85317476  0.77460254     0.10600
C2478       C  0.34177470  0.85406531  0.72803318    -0.15400
C2479       C  0.33760349  0.85647107  0.71394666     0.03600
C2480       C  0.34459588  0.83868054  0.70478052    -0.10700
C2481       C  0.35611890  0.81903640  0.71005582    -0.00700
C2482       C  0.36017876  0.81664979  0.72414292    -0.05900
H2483       H  0.33629582  0.86776467  0.73495417     0.06600
H2484       H  0.36170406  0.80526589  0.70321210     0.10000
Br2485     Br  0.39100520  0.86913741  0.74604907    -0.05600
Br2486     Br  0.32770856  0.78983664  0.77872360    -0.02500
Br2487     Br  0.32355562  0.88508626  0.70790279     0.00300
Br2488     Br  0.37604099  0.78920941  0.73039810    -0.04100
C2489       C  0.58012019  0.78083327  0.82320749    -0.11500
C2490       C  0.56849618  0.76109787  0.81787432     0.04000
C2491       C  0.54404220  0.76076325  0.81740482    -0.12000
C2492       C  0.53099483  0.77963431  0.82237234     0.18900
C2493       C  0.54254369  0.79860154  0.82839531    -0.09000
C2494       C  0.56680308  0.79912516  0.82871043    -0.02000
H2495       H  0.53518069  0.74601930  0.81283943     0.05400
C2496       C  0.50544306  0.78019004  0.82062452     0.20800
H2497       H  0.57532180  0.81425485  0.83307456     0.10600
C2498       C  0.49110737  0.77340963  0.83150706    -0.15400
C2499       C  0.46696876  0.77687926  0.83093773     0.03600
C2500       C  0.45675157  0.78723966  0.81919974    -0.10700
C2501       C  0.47123605  0.79338592  0.80816064    -0.00700
C2502       C  0.49535521  0.78997062  0.80881063    -0.05900
H2503       H  0.49887249  0.76630928  0.84073685     0.06600
H2504       H  0.46384047  0.80141601  0.79908759     0.10000
Br2505     Br  0.52589304  0.82469964  0.83582554    -0.05600
Br2506     Br  0.58475213  0.73488372  0.81028504    -0.02500
Br2507     Br  0.44960543  0.76926829  0.84714025     0.00300
Br2508     Br  0.51410579  0.80018496  0.79368952    -0.04100
C2509       C  0.38456279  0.85702909  0.85437925    -0.11500
C2510       C  0.40576133  0.86466824  0.86021173     0.04000
C2511       C  0.40559489  0.87903186  0.87182656    -0.12000
C2512       C  0.38460418  0.88575828  0.87804649     0.18900
C2513       C  0.36344085  0.87774265  0.87241931    -0.09000
C2514       C  0.36353661  0.86375182  0.86061015    -0.02000
H2515       H  0.42197197  0.88536007  0.87589635     0.05400
C2516       C  0.38527352  0.90275357  0.88958093     0.20800
H2517       H  0.34711981  0.85764489  0.85646809     0.10600
C2518       C  0.37661870  0.92529774  0.88741736    -0.15400
C2519       C  0.37946175  0.94276417  0.89728379     0.03600
C2520       C  0.39143893  0.93800576  0.90962210    -0.10700
C2521       C  0.39901827  0.91510982  0.91212247    -0.00700
C2522       C  0.39600803  0.89755210  0.90223589    -0.05900
H2523       H  0.36811308  0.92951260  0.87781026     0.06600
H2524       H  0.40815454  0.91107949  0.92155256     0.10000
Br2525     Br  0.33410171  0.88459147  0.88090635    -0.05600
Br2526     Br  0.43549076  0.85725522  0.85231163    -0.02500
Br2527     Br  0.36612251  0.97263308  0.89335465     0.00300
Br2528     Br  0.40684185  0.86675042  0.90640571    -0.04100
loop_ 
_geom_bond_atom_site_label_1 
_geom_bond_atom_site_label_2 
_geom_bond_distance 
_geom_bond_site_symmetry_2 
_ccdc_geom_bond_type 
O1            C4   1.269       .  A
O1           Cd6   2.523       .  S
C2           O11   1.262       .  A
C2            O7   1.268       .  A
C2         C2509   1.486       .  S
O3            C9   1.267       .  A
O3           Cd6   2.472       .  S
C4           O12   1.262       .  A
C4         C2469   1.488       .  S
C5           O10   1.266       .  A
C5            O8   1.267       .  A
C5         C2500   1.485       .  S
Cd6          O13   2.455       .  S
Cd6          O12   2.453       .  S
Cd6          O11   2.466       .  S
Cd6           O7   2.520       .  S
Cd6          O10   2.469       .  S
Cd6           O8   2.474       .  S
C9           O13   1.263       .  A
C9         C2449   1.487       .  S
O14          C17   1.268       .  A
O14         Cd19   2.493       .  S
C15          O24   1.264       .  A
C15          O20   1.269       .  A
C15        C2440   1.486       .  S
O16          C22   1.268       .  A
O16         Cd19   2.504       .  S
C17          O25   1.263       .  A
C17        C2409   1.484       .  S
C18          O23   1.268       .  A
C18          O21   1.264       .  A
C18        C2389   1.485       .  S
Cd19         O26   2.414       .  S
Cd19         O25   2.448       .  S
Cd19         O24   2.452       .  S
Cd19         O20   2.476       .  S
Cd19         O23   2.468       .  S
Cd19         O21   2.451       .  S
C22          O26   1.264       .  A
C22        C2489   1.481       .  S
O27          C30   1.266       .  A
O27         Cd32   2.449       .  S
C28          O37   1.261       .  A
C28          O33   1.269       .  A
C28        C2329   1.493       .  S
O29          C35   1.267       .  A
O29         Cd32   2.471       .  S
C30          O38   1.269       .  A
C30        C2369   1.492       .  S
C31          O36   1.266       .  A
C31          O34   1.265       .  A
C31        C2320   1.475       .  S
Cd32         O39   2.434       .  S
Cd32         O38   2.487       .  S
Cd32         O37   2.455       .  S
Cd32         O33   2.507       .  S
Cd32         O36   2.455       .  S
Cd32         O34   2.465       .  S
C35          O39   1.265       .  A
C35        C2349   1.474       .  S
O40          C43   1.267       .  A
O40         Cd45   2.473       .  S
C41          O50   1.265       .  A
C41          O46   1.264       .  A
C41        C2289   1.491       .  S
O42          C48   1.267       .  A
O42         Cd45   2.503       .  S
C43          O51   1.267       .  A
C43        C2420   1.490       .  S
C44          O49   1.267       .  A
C44          O47   1.264       .  A
C44        C2269   1.479       .  S
Cd45         O52   2.427       .  S
Cd45         O51   2.463       .  S
Cd45         O50   2.459       .  S
Cd45         O46   2.492       .  S
Cd45         O49   2.493       .  S
Cd45         O47   2.455       .  S
C48          O52   1.262       .  A
C48        C2360   1.479       .  S
O53          C56   1.267       .  A
O53         Cd58   2.488       .  S
C54          O63   1.265       .  A
C54          O59   1.270       .  A
C54        C2480   1.484       .  S
O55          C61   1.268       .  A
O55         Cd58   2.475       .  S
C56          O64   1.264       .  A
C56        C2249   1.488       .  S
C57          O62   1.266       .  A
C57          O60   1.265       .  A
C57        C2220   1.486       .  S
Cd58         O65   2.420       .  S
Cd58         O64   2.453       .  S
Cd58         O63   2.453       .  S
Cd58         O59   2.488       .  S
Cd58         O62   2.475       .  S
Cd58         O60   2.446       .  S
C61          O65   1.264       .  A
C61        C2229   1.470       .  S
O66          C69   1.262       .  A
O66         Cd71   2.449       .  S
C67          O76   1.262       .  A
C67          O72   1.268       .  A
C67        C2189   1.478       .  S
O68          C74   1.265       .  A
O68         Cd71   2.457       .  S
C69          O77   1.269       .  A
C69        C2180   1.494       .  S
C70          O75   1.263       .  A
C70          O73   1.266       .  A
C70        C2160   1.483       .  S
Cd71         O78   2.453       .  S
Cd71         O77   2.515       .  S
Cd71         O76   2.431       .  S
Cd71         O72   2.505       .  S
Cd71         O75   2.461       .  S
Cd71         O73   2.469       .  S
C74          O78   1.267       .  A
C74        C2240   1.484       .  S
O79          C82   1.266       .  A
O79         Cd84   2.490       .  S
C80          O89   1.264       .  A
C80          O85   1.268       .  A
C80        C2129   1.490       .  S
O81          C87   1.266       .  A
O81         Cd84   2.508       .  S
C82          O90   1.264       .  A
C82        C2169   1.485       .  S
C83          O88   1.268       .  A
C83          O86   1.265       .  A
C83        C2089   1.483       .  S
Cd84         O91   2.447       .  S
Cd84         O90   2.463       .  S
Cd84         O89   2.457       .  S
Cd84         O85   2.479       .  S
Cd84         O88   2.470       .  S
Cd84         O86   2.451       .  S
C87          O91   1.263       .  A
C87        C2109   1.481       .  S
O92          C95   1.267       .  A
O92         Cd97   2.478       .  S
C93         O102   1.262       .  A
C93          O98   1.269       .  A
C93        C2340   1.488       .  S
O94         C100   1.267       .  A
O94         Cd97   2.492       .  S
C95         O103   1.264       .  A
C95        C2080   1.484       .  S
C96         O101   1.265       .  A
C96          O99   1.264       .  A
C96        C2049   1.480       .  S
Cd97        O104   2.436       .  S
Cd97        O103   2.463       .  S
Cd97        O102   2.436       .  S
Cd97         O98   2.514       .  S
Cd97        O101   2.462       .  S
Cd97         O99   2.466       .  S
C100        O104   1.264       .  A
C100       C2120   1.482       .  S
C105        C106   1.541   1_565  S
C105        C111   1.542       .  S
C105        C109   1.553       .  S
C105       C2029   1.546       .  S
C106        H113   1.085       .  S
C106        C107   1.369   1_545  D
C107        C108   1.538       .  S
C107       C2140   1.489   1_565  S
C108        C112   1.530       .  S
C108        C110   1.537       .  S
C108        H114   1.111       .  S
C109        H115   1.085       .  S
C109        C110   1.375       .  D
C110       C2520   1.492       .  S
C111        H116   1.083       .  S
C111        C112   1.354       .  D
C112       C2009   1.472       .  S
C117        C118   1.541       .  S
C117        C123   1.534       .  S
C117        C121   1.553       .  S
C117       C2040   1.542       .  S
C118        H125   1.086       .  S
C118        C119   1.366       .  D
C119        C120   1.536       .  S
C119       C1960   1.479       .  S
C120        C124   1.542       .  S
C120        C122   1.544       .  S
C120        H126   1.108       .  S
C121        H127   1.080   1_565  S
C121        C122   1.376       .  D
C122       C1969   1.501   1_565  S
C123        H128   1.088       .  S
C123        C124   1.357       .  D
C124       C2000   1.482       .  S
C129        C130   1.538       .  S
C129        C135   1.548       .  S
C129        C133   1.546       .  S
C129       C1929   1.544       .  S
C130        H137   1.086       .  S
C130        C131   1.367       .  D
C131        C132   1.534       .  S
C131       C2429   1.475       .  S
C132        C136   1.531       .  S
C132        C134   1.535       .  S
C132        H138   1.111       .  S
C133        H139   1.084   1_565  S
C133        C134   1.368       .  D
C134       C2069   1.484   1_565  S
C135        H140   1.081       .  S
C135        C136   1.361       .  D
C136       C2020   1.483       .  S
C141        C142   1.542   1_565  S
C141        C147   1.540       .  S
C141        C145   1.550       .  S
C141       C1940   1.542       .  S
C142        H149   1.086       .  S
C142        C143   1.366       .  D
C143        C144   1.532   1_545  S
C143       C1920   1.475       .  S
C144        C148   1.533       .  S
C144        C146   1.536       .  S
C144        H150   1.111       .  S
C145        H151   1.082       .  S
C145        C146   1.370       .  D
C146       C1900   1.486       .  S
C147        H152   1.087       .  S
C147        C148   1.363       .  D
C148       C1989   1.492       .  S
C153        C154   1.545       .  S
C153        C159   1.534       .  S
C153        C157   1.552       .  S
C153       C1869   1.544       .  S
C154        H161   1.085       .  S
C154        C155   1.377       .  D
C155        C156   1.540       .  S
C155       C2300   1.500       .  S
C156        C160   1.536       .  S
C156        C158   1.531       .  S
C156        H162   1.105       .  S
C157        H163   1.081       .  S
C157        C158   1.366       .  D
C158       C2260   1.481       .  S
C159        H164   1.087       .  S
C159        C160   1.357       .  D
C160       C1860   1.478       .  S
C165        C166   1.541       .  S
C165        C171   1.541       .  S
C165        C169   1.547       .  S
C165       C1880   1.547       .  S
C166        H173   1.086       .  S
C166        C167   1.373       .  D
C167        C168   1.540       .  S
C167       C1789   1.494       .  S
C168        C172   1.532       .  S
C168        C170   1.543       .  S
C168        H174   1.106       .  S
C169        H175   1.085       .  S
C169        C170   1.375       .  D
C170       C1809   1.497       .  S
C171        H176   1.083       .  S
C171        C172   1.350       .  D
C172       C1840   1.472       .  S
C177        C178   1.541       .  S
C177        C183   1.537       .  S
C177        C181   1.553       .  S
C177       C1769   1.542       .  S
C178        H185   1.085       .  S
C178        C179   1.370       .  D
C179        C180   1.540       .  S
C179       C2200   1.489       .  S
C180        C184   1.536       .  S
C180        C182   1.533       .  S
C180        H186   1.110       .  S
C181        H187   1.081       .  S
C181        C182   1.367       .  D
C182       C2380   1.488       .  S
C183        H188   1.086       .  S
C183        C184   1.363       .  D
C184       C1849   1.490       .  S
C189        C190   1.532       .  S
C189        C195   1.544       .  S
C189        C193   1.545       .  S
C189       C1780   1.538       .  S
C190        H197   1.086       .  S
C190        C191   1.367       .  D
C191        C192   1.540       .  S
C191       C1749   1.479       .  S
C192        C196   1.536       .  S
C192        C194   1.538       .  S
C192        H198   1.109       .  S
C193        H199   1.085       .  S
C193        C194   1.367       .  D
C194       C1729   1.485       .  S
C195        H200   1.083       .  S
C195        C196   1.362       .  D
C196       C1829   1.488       .  S
O201        C204   1.270       .  A
O201       Cd206   2.468       .  S
C202        O211   1.263       .  A
C202        O207   1.267       .  A
C202       C1909   1.481       .  S
O203        C209   1.268       .  A
O203       Cd206   2.472       .  S
C204        O212   1.264       .  A
C204       C1689   1.477       .  S
C205        O210   1.267       .  A
C205        O208   1.265       .  A
C205       C1669   1.478       .  S
Cd206       O213   2.425       .  S
Cd206       O212   2.421       .  S
Cd206       O211   2.447       .  S
Cd206       O207   2.480       .  S
Cd206       O210   2.471       .  S
Cd206       O208   2.440       .  S
C209        O213   1.263       .  A
C209       C1720   1.475       .  S
O214        C217   1.268       .  A
O214       Cd219   2.471       .  S
C215        O224   1.264       .  A
C215        O220   1.267       .  A
C215       C1660   1.489       .  S
O216        C222   1.268       .  A
O216       Cd219   2.481       .  S
C217        O225   1.264       .  A
C217       C1980   1.486       .  S
C218        O223   1.267       .  A
C218        O221   1.265       .  A
C218       C1629   1.480       .  S
Cd219       O226   2.446       .  S
Cd219       O225   2.461       .  S
Cd219       O224   2.442       .  S
Cd219       O220   2.486       .  S
Cd219       O223   2.454       .  S
Cd219       O221   2.457       .  S
C222        O226   1.263       .  A
C222       C1709   1.482       .  S
O227        C230   1.268       .  A
O227       Cd232   2.483       .  S
C228        O237   1.263       .  A
C228        O233   1.263       .  A
C228       C1760   1.473       .  S
O229        C235   1.268       .  A
O229       Cd232   2.491       .  S
C230        O238   1.265       .  A
C230       C1700   1.488       .  S
C231        O236   1.268       .  A
C231        O234   1.267       .  A
C231       C1589   1.470       .  S
Cd232       O239   2.394       .  S
Cd232       O238   2.428       .  S
Cd232       O237   2.468       .  S
Cd232       O233   2.450       .  S
Cd232       O236   2.448       .  S
Cd232       O234   2.432       .  S
C235        O239   1.262       .  A
C235       C1609   1.476       .  S
O240        C243   1.270       .  A
O240       Cd245   2.487       .  S
C241        O250   1.262       .  A
C241        O246   1.269       .  A
C241       C1569   1.488       .  S
O242        C248   1.268       .  A
O242       Cd245   2.476       .  S
C243        O251   1.264       .  A
C243       C1820   1.483       .  S
C244        O249   1.266       .  A
C244        O247   1.265       .  A
C244       C1549   1.478       .  S
Cd245       O252   2.424       .  S
Cd245       O251   2.440       .  S
Cd245       O250   2.447       .  S
Cd245       O246   2.504       .  S
Cd245       O249   2.458       .  S
Cd245       O247   2.454       .  S
C248        O252   1.264       .  A
C248       C1620   1.478       .  S
O253        C256   1.268       .  A
O253       Cd258   2.497       .  S
C254        O263   1.263       .  A
C254        O259   1.268       .  A
C254       C1949   1.486       .  S
O255        C261   1.266       .  A
O255       Cd258   2.481       .  S
C256        O264   1.263       .  A
C256       C1520   1.487       .  S
C257        O262   1.267       .  A
C257        O260   1.265       .  A
C257       C1500   1.484       .  S
Cd258       O265   2.449       .  S
Cd258       O264   2.444       .  S
Cd258       O263   2.446       .  S
Cd258       O259   2.504       .  S
Cd258       O262   2.478       .  S
Cd258       O260   2.458       .  S
C261        O265   1.265       .  A
C261       C1540   1.480       .  S
O266        C269   1.267       .  A
O266       Cd271   2.476       .  S
C267        O276   1.263       .  A
C267        O272   1.267       .  A
C267       C1580   1.483       .  S
O268        C274   1.266       .  A
O268       Cd271   2.471       .  S
C269        O277   1.264       .  A
C269       C1889   1.481       .  S
C270        O275   1.266       .  A
C270        O273   1.265       .  A
C270       C1469   1.480       .  S
Cd271       O278   2.434       .  S
Cd271       O277   2.434       .  S
Cd271       O276   2.450       .  S
Cd271       O272   2.490       .  S
Cd271       O275   2.450       .  S
Cd271       O273   2.470       .  S
C274        O278   1.265       .  A
C274       C1529   1.481       .  S
O279        C282   1.269       .  A
O279       Cd284   2.496       .  S
C280        O289   1.265       .  A
C280        O285   1.268       .  A
C280       C1649   1.488       .  S
O281        C287   1.267       .  A
O281       Cd284   2.488       .  S
C282        O290   1.263       .  A
C282       C1740   1.487       .  S
C283        O288   1.267       .  A
C283        O286   1.264       .  A
C283       C1440   1.480       .  S
Cd284       O291   2.435       .  S
Cd284       O290   2.450       .  S
Cd284       O289   2.451       .  S
Cd284       O285   2.481       .  S
Cd284       O288   2.469       .  S
Cd284       O286   2.454       .  S
C287        O291   1.263       .  A
C287       C1460   1.477       .  S
O292        C295   1.266       .  A
O292       Cd297   2.463       .  S
C293        O302   1.265       .  A
C293        O298   1.265       .  A
C293       C1800   1.483       .  S
O294        C300   1.266       .  A
O294       Cd297   2.488       .  S
C295        O303   1.264       .  A
C295       C1509   1.475       .  S
C296        O301   1.267       .  A
C296        O299   1.264       .  A
C296       C1409   1.473       .  S
Cd297       O304   2.436       .  S
Cd297       O303   2.444       .  S
Cd297       O302   2.449       .  S
Cd297       O298   2.467       .  S
Cd297       O301   2.453       .  S
Cd297       O299   2.425       .  S
C300        O304   1.262       .  A
C300       C1449   1.477       .  S
O305        C308   1.267       .  A
O305       Cd310   2.492       .  S
C306        O315   1.265       .  A
C306        O311   1.268       .  A
C306       C1349   1.485       .  S
O307        C313   1.266       .  A
O307       Cd310   2.476       .  S
C308        O316   1.265       .  A
C308       C1389   1.487       .  S
C309        O314   1.266       .  A
C309        O312   1.264       .  A
C309       C2400   1.480       .  S
Cd310       O317   2.431       .  S
Cd310       O316   2.456       .  S
Cd310       O315   2.436       .  S
Cd310       O311   2.485       .  S
Cd310       O314   2.472       .  S
Cd310       O312   2.468       .  S
C313        O317   1.264       .  A
C313       C1369   1.478       .  S
O318        C321   1.266       .  A
O318       Cd323   2.478       .  S
C319        O328   1.265       .  A
C319        O324   1.264       .  A
C319       C1329   1.473       .  S
O320        C326   1.265       .  A
O320       Cd323   2.458       .  S
C321        O329   1.264       .  A
C321       C1309   1.483       .  S
C322        O327   1.266       .  A
C322        O325   1.265       .  A
C322       C2060   1.476       .  S
Cd323       O330   2.427       .  S
Cd323       O329   2.447       .  S
Cd323       O328   2.469       .  S
Cd323       O324   2.452       .  S
Cd323       O327   2.460       .  S
Cd323       O325   2.447       .  S
C326        O330   1.264       .  A
C326       C1380   1.473       .  S
O331        C334   1.266       .  A
O331       Cd336   2.484       .  S
C332        O341   1.267       .  A
C332        O337   1.265       .  A
C332       C1300   1.490       .  S
O333        C339   1.267       .  A
O333       Cd336   2.509       .  S
C334        O342   1.265       .  A
C334       C1249   1.487       .  S
C335        O340   1.268       .  A
C335        O338   1.262       .  A
C335       C2460   1.486       .  S
Cd336       O343   2.434       .  S
Cd336       O342   2.442       .  S
Cd336       O341   2.471       .  S
Cd336       O337   2.472       .  S
Cd336       O340   2.490       .  S
Cd336       O338   2.447       .  S
C339        O343   1.264       .  A
C339       C1269   1.488       .  S
O344        C347   1.268       .  A
O344       Cd349   2.503       .  S
C345        O354   1.263       .  A
C345        O350   1.267       .  A
C345       C1209   1.487       .  S
O346        C352   1.264       .  A
O346       Cd349   2.483       .  S
C347        O355   1.264       .  A
C347       C1229   1.484       .  S
C348        O353   1.266       .  A
C348        O351   1.266       .  A
C348       C2100   1.482       .  S
Cd349       O356   2.461       .  S
Cd349       O355   2.459       .  S
Cd349       O354   2.452       .  S
Cd349       O350   2.500       .  S
Cd349       O353   2.469       .  S
Cd349       O351   2.463       .  S
C352        O356   1.264       .  A
C352       C1280   1.484       .  S
O357        C360   1.266       .  A
O357       Cd362   2.499       .  S
C358        O367   1.265       .  A
C358        O363   1.264       .  A
C358       C1189   1.483       .  S
O359        C365   1.264       .  A
O359       Cd362   2.459       .  S
C360        O368   1.264       .  A
C360       C1220   1.489       .  S
C361        O366   1.265       .  A
C361        O364   1.265       .  A
C361       C1180   1.483       .  S
Cd362       O369   2.475       .  S
Cd362       O368   2.434       .  S
Cd362       O367   2.483       .  S
Cd362       O363   2.462       .  S
Cd362       O366   2.478       .  S
Cd362       O364   2.446       .  S
C365        O369   1.266       .  A
C365       C2149   1.485       .  S
O370        C373   1.267       .  A
O370       Cd375   2.479       .  S
C371        O380   1.268       .  A
C371        O376   1.262       .  A
C371       C1160   1.484       .  S
O372        C378   1.266       .  A
O372       Cd375   2.490       .  S
C373        O381   1.263       .  A
C373       C1320   1.483       .  S
C374        O379   1.267       .  A
C374        O377   1.264       .  A
C374       C2309   1.487       .  S
Cd375       O382   2.438       .  S
Cd375       O381   2.443       .  S
Cd375       O380   2.476       .  S
Cd375       O376   2.423       .  S
Cd375       O379   2.470       .  S
Cd375       O377   2.456       .  S
C378        O382   1.264       .  A
C378       C1169   1.484       .  S
O383        C386   1.267       .  A
O383       Cd388   2.483       .  S
C384        O393   1.264       .  A
C384        O389   1.264       .  A
C384       C1360   1.491       .  S
O385        C391   1.266       .  A
O385       Cd388   2.495       .  S
C386        O394   1.267       .  A
C386       C1129   1.487       .  S
C387        O392   1.265       .  A
C387        O390   1.263       .  A
C387       C2280   1.485       .  S
Cd388       O395   2.446       .  S
Cd388       O394   2.455       .  S
Cd388       O393   2.464       .  S
Cd388       O389   2.491       .  S
Cd388       O392   2.471       .  S
Cd388       O390   2.473       .  S
C391        O395   1.264       .  A
C391       C1109   1.477       .  S
O396        C399   1.269       .  A
O396       Cd401   2.492       .  S
C397        O406   1.261       .  A
C397        O402   1.268       .  A
C397       C1089   1.485       .  S
O398        C404   1.265       .  A
O398       Cd401   2.491       .  S
C399        O407   1.265       .  A
C399       C1260   1.482       .  S
C400        O405   1.267       .  A
C400        O403   1.266       .  A
C400       C2209   1.474       .  S
Cd401       O408   2.451       .  S
Cd401       O407   2.441       .  S
Cd401       O406   2.439       .  S
Cd401       O402   2.490       .  S
Cd401       O405   2.453       .  S
Cd401       O403   2.458       .  S
C404        O408   1.264       .  A
C404       C1120   1.483       .  S
C409        C410   1.541       .  S
C409        C415   1.545       .  S
C409        C413   1.551   1_455  S
C409       C1080   1.548       .  S
C410        H417   1.086       .  S
C410        C411   1.373       .  D
C411        C412   1.538       .  S
C411       C1289   1.496       .  S
C412        C416   1.532       .  S
C412        C414   1.532   1_455  S
C412        H418   1.107       .  S
C413        H419   1.085       .  S
C413        C414   1.372       .  D
C414       C1400   1.482       .  S
C415        H420   1.082       .  S
C415        C416   1.356       .  D
C416       C1060   1.476       .  S
C421        C422   1.545       .  S
C421        C427   1.535       .  S
C421        C425   1.551       .  S
C421       C1069   1.540       .  S
C422        H429   1.085   1_455  S
C422        C423   1.367   1_455  D
C423        C424   1.535   1_655  S
C423       C1009   1.484       .  S
C424        C428   1.534       .  S
C424        C426   1.535       .  S
C424        H430   1.111       .  S
C425        H431   1.083       .  S
C425        C426   1.371       .  D
C426        C989   1.480       .  S
C427        H432   1.086       .  S
C427        C428   1.360       .  D
C428       C1029   1.483       .  S
C433        C434   1.542       .  S
C433        C439   1.536       .  S
C433        C437   1.557       .  S
C433        C969   1.543       .  S
C434        H441   1.086   1_455  S
C434        C435   1.370       .  D
C435        C436   1.535       .  S
C435       C1340   1.478   1_455  S
C436        C440   1.537       .  S
C436        C438   1.529       .  S
C436        H442   1.110       .  S
C437        H443   1.080       .  S
C437        C438   1.367       .  D
C438       C1240   1.480       .  S
C439        H444   1.084       .  S
C439        C440   1.362       .  D
C440       C1049   1.492       .  S
C445        C446   1.539       .  S
C445        C451   1.546       .  S
C445        C449   1.544       .  S
C445        C980   1.540       .  S
C446        H453   1.086       .  S
C446        C447   1.369       .  D
C447        C448   1.535       .  S
C447        C929   1.490       .  S
C448        C452   1.532       .  S
C448        C450   1.537   1_455  S
C448        H454   1.109       .  S
C449        H455   1.083   1_455  S
C449        C450   1.369   1_455  D
C450        C949   1.483       .  S
C451        H456   1.085       .  S
C451        C452   1.360       .  D
C452       C1040   1.481       .  S
C457        C458   1.535       .  S
C457        C463   1.547       .  S
C457        C461   1.550       .  S
C457        C909   1.543       .  S
C458        H465   1.086       .  S
C458        C459   1.361       .  D
C459        C460   1.538       .  S
C459       C1100   1.474       .  S
C460        C464   1.531       .  S
C460        C462   1.534       .  S
C460        H466   1.111       .  S
C461        H467   1.084       .  S
C461        C462   1.373       .  D
C462       C1200   1.484       .  S
C463        H468   1.084       .  S
C463        C464   1.365       .  D
C464        C889   1.486       .  S
C469        C470   1.542       .  S
C469        C475   1.539       .  S
C469        C473   1.551       .  S
C469        C920   1.544       .  S
C470        H477   1.085       .  S
C470        C471   1.372       .  D
C471        C472   1.541       .  S
C471        C829   1.493       .  S
C472        C476   1.537       .  S
C472        C474   1.531       .  S
C472        H478   1.108       .  S
C473        H479   1.083       .  S
C473        C474   1.365       .  D
C474        C849   1.478       .  S
C475        H480   1.086       .  S
C475        C476   1.364       .  D
C476        C869   1.489       .  S
C481        C482   1.532       .  S
C481        C487   1.548       .  S
C481        C485   1.556       .  S
C481        C820   1.540       .  S
C482        H489   1.086       .  S
C482        C483   1.360       .  D
C483        C484   1.532       .  S
C483       C1149   1.471       .  S
C484        C488   1.526       .  S
C484        C486   1.536       .  S
C484        H490   1.111       .  S
C485        H491   1.084       .  S
C485        C486   1.377       .  D
C486       C1140   1.490       .  S
C487        H492   1.085       .  S
C487        C488   1.360       .  D
C488        C900   1.481       .  S
C493        C494   1.539       .  S
C493        C499   1.544       .  S
C493        C497   1.551       .  S
C493        C809   1.542       .  S
C494        H501   1.086       .  S
C494        C495   1.365       .  D
C495        C496   1.536       .  S
C495        C789   1.474       .  S
C496        C500   1.527       .  S
C496        C498   1.540       .  S
C496        H502   1.110       .  S
C497        H503   1.077       .  S
C497        C498   1.372       .  D
C498        C769   1.496       .  S
C499        H504   1.086       .  S
C499        C500   1.362       .  D
C500        C880   1.482       .  S
O505        C508   1.266       .  A
O505       Cd510   2.495       .  S
C506        O515   1.266       .  A
C506        O511   1.267       .  A
C506        C729   1.493       .  S
O507        C513   1.263       .  A
O507       Cd510   2.478       .  S
C508        O516   1.263       .  A
C508        C860   1.490       .  S
C509        O514   1.265       .  A
C509        O512   1.264       .  A
C509       C1420   1.484       .  S
Cd510       O517   2.450       .  S
Cd510       O516   2.459       .  S
Cd510       O515   2.460       .  S
Cd510       O511   2.497       .  S
Cd510       O514   2.460       .  S
Cd510       O512   2.462       .  S
C513        O517   1.264       .  A
C513        C749   1.476       .  S
O518        C521   1.267       .  A
O518       Cd523   2.486       .  S
C519        O528   1.264       .  A
C519        O524   1.266       .  A
C519        C709   1.492       .  S
O520        C526   1.264       .  A
O520       Cd523   2.443       .  S
C521        O529   1.263       .  A
C521        C800   1.488       .  S
C522        O527   1.263       .  A
C522        O525   1.266       .  A
C522        C760   1.483       .  S
Cd523       O530   2.462       .  S
Cd523       O529   2.460       .  S
Cd523       O528   2.459       .  S
Cd523       O524   2.501       .  S
Cd523       O527   2.464       .  S
Cd523       O525   2.459       .  S
C526        O530   1.267       .  A
C526       C1560   1.477       .  S
O531        C534   1.270       .  A
O531       Cd536   2.507       .  S
C532        O541   1.264       .  A
C532        O537   1.268       .  A
C532       C1020   1.489       .  S
O533        C539   1.267       .  A
O533       Cd536   2.467       .  S
C534        O542   1.262       .  A
C534        C720   1.495       .  S
C535        O540   1.267       .  A
C535        O538   1.266       .  A
C535       C1480   1.482       .  S
Cd536       O543   2.420       .  S
Cd536       O542   2.457       .  S
Cd536       O541   2.462       .  S
Cd536       O537   2.487       .  S
Cd536       O540   2.452       .  S
Cd536       O538   2.447       .  S
C539        O543   1.263       .  A
C539        C689   1.471       .  S
O544        C547   1.263       .  A
O544       Cd549   2.437       .  S
C545        O554   1.264       .  A
C545        O550   1.267       .  A
C545        C669   1.484       .  S
O546        C552   1.267       .  A
O546       Cd549   2.452       .  S
C547        O555   1.267       .  A
C547        C960   1.483       .  S
C548        O553   1.265       .  A
C548        O551   1.264       .  A
C548       C1680   1.481       .  S
Cd549       O556   2.427       .  S
Cd549       O555   2.500       .  S
Cd549       O554   2.457       .  S
Cd549       O550   2.469       .  S
Cd549       O553   2.463       .  S
Cd549       O551   2.451       .  S
C552        O556   1.265       .  A
C552        C700   1.470       .  S
O557        C560   1.266       .  A
O557       Cd562   2.491       .  S
C558        O567   1.264       .  A
C558        O563   1.264       .  A
C558        C740   1.490       .  S
O559        C565   1.266       .  A
O559       Cd562   2.481       .  S
C560        O568   1.264       .  A
C560       C1000   1.485       .  S
C561        O566   1.267       .  A
C561        O564   1.264       .  A
C561       C1489   1.488       .  S
Cd562       O569   2.458       .  S
Cd562       O568   2.467       .  S
Cd562       O567   2.468       .  S
Cd562       O563   2.477       .  S
Cd562       O566   2.492       .  S
Cd562       O564   2.481       .  S
C565        O569   1.264       .  A
C565        C660   1.480       .  S
O570        C573   1.265       .  A
O570       Cd575   2.481       .  S
C571        O580   1.265       .  A
C571        O576   1.267       .  A
C571        C629   1.479       .  S
O572        C578   1.266       .  A
O572       Cd575   2.482       .  S
C573        O581   1.265       .  A
C573        C940   1.484       .  S
C574        O579   1.266       .  A
C574        O577   1.266       .  A
C574        C649   1.485       .  S
Cd575       O582   2.435       .  S
Cd575       O581   2.467       .  S
Cd575       O580   2.457       .  S
Cd575       O576   2.468       .  S
Cd575       O579   2.466       .  S
Cd575       O577   2.445       .  S
C578        O582   1.262       .  A
C578       C1640   1.476       .  S
O583        C586   1.268       .  A
O583       Cd588   2.478       .  S
C584        O593   1.264       .  A
C584        O589   1.268       .  A
C584        C680   1.481       .  S
O585        C591   1.268       .  A
O585       Cd588   2.484       .  S
C586        O594   1.265       .  A
C586        C780   1.478       .  S
C587        O592   1.267       .  A
C587        O590   1.265       .  A
C587       C1600   1.477       .  S
Cd588       O595   2.433       .  S
Cd588       O594   2.447       .  S
Cd588       O593   2.439       .  S
Cd588       O589   2.482       .  S
Cd588       O592   2.457       .  S
Cd588       O590   2.446       .  S
C591        O595   1.265       .  A
C591        C609   1.480       .  S
O596        C599   1.265       .  A
O596       Cd601   2.493       .  S
C597        O606   1.266       .  A
C597        O602   1.269       .  A
C597        C640   1.477       .  S
O598        C604   1.266       .  A
O598       Cd601   2.480       .  S
C599        O607   1.262       .  A
C599        C840   1.489       .  S
C600        O605   1.267       .  A
C600        O603   1.264       .  A
C600        C620   1.470       .  S
Cd601       O608   2.450       .  S
Cd601       O607   2.447       .  S
Cd601       O606   2.432       .  S
Cd601       O602   2.473       .  S
Cd601       O605   2.472       .  S
Cd601       O603   2.444       .  S
C604        O608   1.263       .  A
C604       C1429   1.473       .  S
C609        C610   1.414       .  A
C609        C614   1.406       .  A
C610        C611   1.402       .  A
C610       Br626   1.919       .  S
C611        C612   1.402   1_655  A
C611        H615   1.083       .  S
C612        C616   1.474       .  S
C612        C613   1.404   1_455  A
C613        C614   1.395       .  A
C613       Br625   1.919   1_655  S
C614        H617   1.084       .  S
C616        C618   1.402       .  A
C616        C622   1.407       .  A
C618        C619   1.399       .  A
C618        H623   1.084       .  S
C619        C620   1.410       .  A
C619       Br627   1.920       .  S
C620        C621   1.402       .  A
C621        C622   1.398       .  A
C621        H624   1.084       .  S
C622       Br628   1.918       .  S
C629        C630   1.412       .  A
C629        C634   1.406       .  A
C630        C631   1.398       .  A
C630       Br646   1.920       .  S
C631        C632   1.402       .  A
C631        H635   1.084       .  S
C632        C636   1.480       .  S
C632        C633   1.407       .  A
C633        C634   1.400       .  A
C633       Br645   1.919       .  S
C634        H637   1.083       .  S
C636        C638   1.404       .  A
C636        C642   1.407       .  A
C638        C639   1.401       .  A
C638        H643   1.083       .  S
C639        C640   1.411       .  A
C639       Br647   1.919       .  S
C640        C641   1.404       .  A
C641        C642   1.397       .  A
C641        H644   1.083       .  S
C642       Br648   1.919       .  S
C649        C650   1.418       .  A
C649        C654   1.407       .  A
C650        C651   1.402       .  A
C650       Br666   1.920       .  S
C651        C652   1.400       .  A
C651        H655   1.084       .  S
C652        C656   1.475       .  S
C652        C653   1.405       .  A
C653        C654   1.395       .  A
C653       Br665   1.920       .  S
C654        H657   1.083       .  S
C656        C658   1.400       .  A
C656        C662   1.405       .  A
C658        C659   1.398       .  A
C658        H663   1.084       .  S
C659        C660   1.414       .  A
C659       Br667   1.921       .  S
C660        C661   1.407       .  A
C661        C662   1.400       .  A
C661        H664   1.084       .  S
C662       Br668   1.918       .  S
C669        C670   1.414       .  A
C669        C674   1.408       .  A
C670        C671   1.399       .  A
C670       Br686   1.921       .  S
C671        C672   1.401       .  A
C671        H675   1.084       .  S
C672        C676   1.481       .  S
C672        C673   1.408       .  A
C673        C674   1.400       .  A
C673       Br685   1.920       .  S
C674        H677   1.083       .  S
C676        C678   1.404       .  A
C676        C682   1.407       .  A
C678        C679   1.401       .  A
C678        H683   1.083       .  S
C679        C680   1.412       .  A
C679       Br687   1.920       .  S
C680        C681   1.407       .  A
C681        C682   1.398       .  A
C681        H684   1.083       .  S
C682       Br688   1.920       .  S
C689        C690   1.412       .  A
C689        C694   1.404       .  A
C690        C691   1.395       .  A
C690       Br706   1.922       .  S
C691        C692   1.399       .  A
C691        H695   1.084       .  S
C692        C696   1.468       .  S
C692        C693   1.405       .  A
C693        C694   1.397       .  A
C693       Br705   1.918       .  S
C694        H697   1.083       .  S
C696        C698   1.400       .  A
C696        C702   1.404       .  A
C698        C699   1.395       .  A
C698        H703   1.084       .  S
C699        C700   1.411       .  A
C699       Br707   1.921       .  S
C700        C701   1.404       .  A
C701        C702   1.397       .  A
C701        H704   1.084       .  S
C702       Br708   1.918       .  S
C709        C710   1.417       .  A
C709        C714   1.408       .  A
C710        C711   1.404       .  A
C710       Br726   1.920       .  S
C711        C712   1.404       .  A
C711        H715   1.083       .  S
C712        C716   1.488       .  S
C712        C713   1.408       .  A
C713        C714   1.399       .  A
C713       Br725   1.920       .  S
C714        H717   1.083       .  S
C716        C718   1.401       .  A
C716        C722   1.409       .  A
C718        C719   1.402       .  A
C718        H723   1.084       .  S
C719        C720   1.420       .  A
C719       Br727   1.922       .  S
C720        C721   1.408       .  A
C721        C722   1.402       .  A
C721        H724   1.083       .  S
C722       Br728   1.920       .  S
C729        C730   1.419       .  A
C729        C734   1.409       .  A
C730        C731   1.404       .  A
C730       Br746   1.920       .  S
C731        C732   1.402       .  A
C731        H735   1.084       .  S
C732        C736   1.482       .  S
C732        C733   1.405       .  A
C733        C734   1.398       .  A
C733       Br745   1.920       .  S
C734        H737   1.083       .  S
C736        C738   1.402       .  A
C736        C742   1.405       .  A
C738        C739   1.402       .  A
C738        H743   1.083       .  S
C739        C740   1.418       .  A
C739       Br747   1.922       .  S
C740        C741   1.409       .  A
C741        C742   1.398       .  A
C741        H744   1.083       .  S
C742       Br748   1.919       .  S
C749        C750   1.414       .  A
C749        C754   1.404       .  A
C750        C751   1.400       .  A
C750       Br766   1.920       .  S
C751        C752   1.401       .  A
C751        H755   1.084       .  S
C752        C756   1.473   1_455  S
C752        C753   1.405       .  A
C753        C754   1.395       .  A
C753       Br765   1.919       .  S
C754        H757   1.084       .  S
C756        C758   1.400       .  A
C756        C762   1.405       .  A
C758        C759   1.402       .  A
C758        H763   1.083       .  S
C759        C760   1.418       .  A
C759       Br767   1.921       .  S
C760        C761   1.405       .  A
C761        C762   1.394       .  A
C761        H764   1.084       .  S
C762       Br768   1.920   1_655  S
C769        C770   1.418       .  A
C769        C774   1.409       .  A
C770        C771   1.399       .  A
C770       Br786   1.921       .  S
C771        C772   1.401       .  A
C771        H775   1.084       .  S
C772        C776   1.483       .  S
C772        C773   1.407       .  A
C773        C774   1.400       .  A
C773       Br785   1.920       .  S
C774        H777   1.083       .  S
C776        C778   1.404       .  A
C776        C782   1.409       .  A
C778        C779   1.402       .  A
C778        H783   1.084       .  S
C779        C780   1.411       .  A
C779       Br787   1.919       .  S
C780        C781   1.404       .  A
C781        C782   1.397       .  A
C781        H784   1.083       .  S
C782       Br788   1.921       .  S
C789        C790   1.408       .  A
C789        C794   1.399       .  A
C790        C791   1.401       .  A
C790       Br806   1.919       .  S
C791        C792   1.405       .  A
C791        H795   1.083       .  S
C792        C796   1.483       .  S
C792        C793   1.411       .  A
C793        C794   1.396       .  A
C793       Br805   1.920       .  S
C794        H797   1.083       .  S
C796        C798   1.402       .  A
C796        C802   1.409       .  A
C798        C799   1.400       .  A
C798        H803   1.084       .  S
C799        C800   1.417       .  A
C799       Br807   1.921       .  S
C800        C801   1.406       .  A
C801        C802   1.399       .  A
C801        H804   1.083       .  S
C802       Br808   1.920       .  S
C809        C810   1.423       .  A
C809        C814   1.418       .  A
C810        C811   1.397       .  A
C810       Br826   1.921       .  S
C811        C812   1.396       .  A
C811        H815   1.084       .  S
C812        C816   1.480       .  S
C812        C813   1.404       .  A
C813        C814   1.404       .  A
C813       Br825   1.918       .  S
C814        H817   1.074       .  S
C816        C818   1.402       .  A
C816        C822   1.402       .  A
C818        C819   1.407       .  A
C818        H823   1.083       .  S
C819        C820   1.420       .  A
C819       Br827   1.918       .  S
C820        C821   1.415       .  A
C821        C822   1.394       .  A
C821        H824   1.080       .  S
C822       Br828   1.921       .  S
C829        C830   1.417       .  A
C829        C834   1.410       .  A
C830        C831   1.398       .  A
C830       Br846   1.919       .  S
C831        C832   1.398       .  A
C831        H835   1.084       .  S
C832        C836   1.475       .  S
C832        C833   1.403       .  A
C833        C834   1.400       .  A
C833       Br845   1.917       .  S
C834        H837   1.083       .  S
C836        C838   1.400       .  A
C836        C842   1.403       .  A
C838        C839   1.402       .  A
C838        H843   1.083       .  S
C839        C840   1.418       .  A
C839       Br847   1.920       .  S
C840        C841   1.410       .  A
C841        C842   1.397       .  A
C841        H844   1.083       .  S
C842       Br848   1.919       .  S
C849        C850   1.409       .  A
C849        C854   1.401       .  A
C850        C851   1.402       .  A
C850       Br866   1.918       .  S
C851        C852   1.403       .  A
C851        H855   1.083       .  S
C852        C856   1.479       .  S
C852        C853   1.408       .  A
C853        C854   1.399       .  A
C853       Br865   1.918       .  S
C854        H857   1.083       .  S
C856        C858   1.401       .  A
C856        C862   1.404       .  A
C858        C859   1.403       .  A
C858        H863   1.084       .  S
C859        C860   1.418       .  A
C859       Br867   1.921       .  S
C860        C861   1.409       .  A
C861        C862   1.399       .  A
C861        H864   1.083       .  S
C862       Br868   1.918       .  S
C869        C870   1.413       .  A
C869        C874   1.405       .  A
C870        C871   1.396       .  A
C870       Br886   1.915       .  S
C871        C872   1.400       .  A
C871        H875   1.084       .  S
C872        C876   1.484   1_455  S
C872        C873   1.410       .  A
C873        C874   1.404       .  A
C873       Br885   1.917       .  S
C874        H877   1.082       .  S
C876        C878   1.403       .  A
C876        C882   1.411       .  A
C878        C879   1.400       .  A
C878        H883   1.084       .  S
C879        C880   1.409       .  A
C879       Br887   1.915       .  S
C880        C881   1.403       .  A
C881        C882   1.402       .  A
C881        H884   1.084       .  S
C882       Br888   1.919       .  S
C889        C890   1.411       .  A
C889        C894   1.406       .  A
C890        C891   1.399       .  A
C890       Br906   1.909       .  S
C891        C892   1.400       .  A
C891        H895   1.084       .  S
C892        C896   1.473   1_455  S
C892        C893   1.406       .  A
C893        C894   1.395       .  A
C893       Br905   1.920       .  S
C894        H897   1.084       .  S
C896        C898   1.400       .  A
C896        C902   1.405       .  A
C898        C899   1.395       .  A
C898        H903   1.084       .  S
C899        C900   1.411       .  A
C899       Br907   1.921       .  S
C900        C901   1.403       .  A
C901        C902   1.399       .  A
C901        H904   1.075       .  S
C902       Br908   1.918       .  S
C909        C910   1.424       .  A
C909        C914   1.414       .  A
C910        C911   1.408       .  A
C910       Br926   1.921       .  S
C911        C912   1.401       .  A
C911        H915   1.082       .  S
C912        C916   1.481       .  S
C912        C913   1.402       .  A
C913        C914   1.393       .  A
C913       Br925   1.922       .  S
C914        H917   1.078       .  S
C916        C918   1.396       .  A
C916        C922   1.403       .  A
C918        C919   1.399       .  A
C918        H923   1.085       .  S
C919        C920   1.426       .  A
C919       Br927   1.921       .  S
C920        C921   1.416       .  A
C921        C922   1.402       .  A
C921        H924   1.079       .  S
C922       Br928   1.918       .  S
C929        C930   1.416       .  A
C929        C934   1.408       .  A
C930        C931   1.396       .  A
C930       Br946   1.917       .  S
C931        C932   1.399       .  A
C931        H935   1.084       .  S
C932        C936   1.479       .  S
C932        C933   1.406       .  A
C933        C934   1.402       .  A
C933       Br945   1.917       .  S
C934        H937   1.083       .  S
C936        C938   1.402       .  A
C936        C942   1.407       .  A
C938        C939   1.402       .  A
C938        H943   1.084       .  S
C939        C940   1.415       .  A
C939       Br947   1.920       .  S
C940        C941   1.406       .  A
C941        C942   1.397       .  A
C941        H944   1.083       .  S
C942       Br948   1.920       .  S
C949        C950   1.411       .  A
C949        C954   1.404       .  A
C950        C951   1.402       .  A
C950       Br966   1.919       .  S
C951        C952   1.406       .  A
C951        H955   1.084       .  S
C952        C956   1.483       .  S
C952        C953   1.408       .  A
C953        C954   1.396       .  A
C953       Br965   1.919       .  S
C954        H957   1.084   1_655  S
C956        C958   1.405       .  A
C956        C962   1.408       .  A
C958        C959   1.402       .  A
C958        H963   1.084       .  S
C959        C960   1.413       .  A
C959       Br967   1.919       .  S
C960        C961   1.406       .  A
C961        C962   1.396       .  A
C961        H964   1.083       .  S
C962       Br968   1.921       .  S
C969        C970   1.425       .  A
C969        C974   1.417       .  A
C970        C971   1.397       .  A
C970       Br986   1.916   1_455  S
C971        C972   1.394       .  A
C971        H975   1.084   1_455  S
C972        C976   1.478       .  S
C972        C973   1.403       .  A
C973        C974   1.403       .  A
C973       Br985   1.918       .  S
C974        H977   1.073       .  S
C976        C978   1.400   1_556  A
C976        C982   1.403   1_556  A
C978        C979   1.406       .  A
C978        H983   1.084       .  S
C979        C980   1.423       .  A
C979       Br987   1.921       .  S
C980        C981   1.413       .  A
C981        C982   1.393       .  A
C981        H984   1.080       .  S
C982       Br988   1.922   1_554  S
C989        C990   1.407       .  A
C989        C994   1.403       .  A
C990        C991   1.401       .  A
C990      Br1006   1.918       .  S
C991        C992   1.406       .  A
C991        H995   1.083       .  S
C992        C996   1.485       .  S
C992        C993   1.409       .  A
C993        C994   1.401       .  A
C993      Br1005   1.918       .  S
C994        H997   1.084       .  S
C996        C998   1.404       .  A
C996       C1002   1.408       .  A
C998        C999   1.403       .  A
C998       H1003   1.083       .  S
C999       C1000   1.413       .  A
C999      Br1007   1.920       .  S
C1000      C1001   1.406       .  A
C1001      C1002   1.399       .  A
C1001      H1004   1.083       .  S
C1002     Br1008   1.920       .  S
C1009      C1010   1.411       .  A
C1009      C1014   1.405       .  A
C1010      C1011   1.396       .  A
C1010     Br1026   1.915       .  S
C1011      C1012   1.400       .  A
C1011      H1015   1.084       .  S
C1012      C1016   1.480       .  S
C1012      C1013   1.408       .  A
C1013      C1014   1.402       .  A
C1013     Br1025   1.917       .  S
C1014      H1017   1.083       .  S
C1016      C1018   1.401       .  A
C1016      C1022   1.405       .  A
C1018      C1019   1.400       .  A
C1018      H1023   1.084       .  S
C1019      C1020   1.416       .  A
C1019     Br1027   1.921       .  S
C1020      C1021   1.410       .  A
C1021      C1022   1.402       .  A
C1021      H1024   1.083       .  S
C1022     Br1028   1.919       .  S
C1029      C1030   1.414       .  A
C1029      C1034   1.405       .  A
C1030      C1031   1.394       .  A
C1030     Br1046   1.919   1_455  S
C1031      C1032   1.398       .  A
C1031      H1035   1.084   1_455  S
C1032      C1036   1.473       .  S
C1032      C1033   1.406       .  A
C1033      C1034   1.401       .  A
C1033     Br1045   1.917       .  S
C1034      H1037   1.084       .  S
C1036      C1038   1.399       .  A
C1036      C1042   1.406       .  A
C1038      C1039   1.395       .  A
C1038      H1043   1.084       .  S
C1039      C1040   1.413       .  A
C1039     Br1047   1.921       .  S
C1040      C1041   1.404       .  A
C1041      C1042   1.400       .  A
C1041      H1044   1.083   1_455  S
C1042     Br1048   1.917   1_455  S
C1049      C1050   1.416       .  A
C1049      C1054   1.408       .  A
C1050      C1051   1.395       .  A
C1050     Br1066   1.925       .  S
C1051      C1052   1.403       .  A
C1051      H1055   1.084       .  S
C1052      C1056   1.487       .  S
C1052      C1053   1.409       .  A
C1053      C1054   1.401       .  A
C1053     Br1065   1.920       .  S
C1054      H1057   1.081       .  S
C1056      C1058   1.404       .  A
C1056      C1062   1.415       .  A
C1058      C1059   1.394       .  A
C1058      H1063   1.084       .  S
C1059      C1060   1.407       .  A
C1059     Br1067   1.922       .  S
C1060      C1061   1.401       .  A
C1061      C1062   1.403       .  A
C1061      H1064   1.082   1_455  S
C1062     Br1068   1.921   1_455  S
C1069      C1070   1.427       .  A
C1069      C1074   1.415       .  A
C1070      C1071   1.397       .  A
C1070     Br1086   1.924   1_455  S
C1071      C1072   1.394   1_554  A
C1071      H1075   1.084   1_454  S
C1072      C1076   1.482       .  S
C1072      C1073   1.406   1_556  A
C1073      C1074   1.405       .  A
C1073     Br1085   1.918   1_554  S
C1074      H1077   1.078       .  S
C1076      C1078   1.402       .  A
C1076      C1082   1.402       .  A
C1078      C1079   1.408       .  A
C1078      H1083   1.082       .  S
C1079      C1080   1.422       .  A
C1079     Br1087   1.918       .  S
C1080      C1081   1.417       .  A
C1081      C1082   1.395       .  A
C1081      H1084   1.076       .  S
C1082     Br1088   1.923       .  S
C1089      C1090   1.419       .  A
C1089      C1094   1.407       .  A
C1090      C1091   1.399       .  A
C1090     Br1106   1.922       .  S
C1091      C1092   1.398       .  A
C1091      H1095   1.084       .  S
C1092      C1096   1.474       .  S
C1092      C1093   1.405       .  A
C1093      C1094   1.398       .  A
C1093     Br1105   1.919       .  S
C1094      H1097   1.083       .  S
C1096      C1098   1.402       .  A
C1096      C1102   1.407       .  A
C1098      C1099   1.400       .  A
C1098      H1103   1.083       .  S
C1099      C1100   1.407       .  A
C1099     Br1107   1.917       .  S
C1100      C1101   1.399       .  A
C1101      C1102   1.398       .  A
C1101      H1104   1.081       .  S
C1102     Br1108   1.919       .  S
C1109      C1110   1.412       .  A
C1109      C1114   1.405       .  A
C1110      C1111   1.398       .  A
C1110     Br1126   1.921       .  S
C1111      C1112   1.400       .  A
C1111      H1115   1.084       .  S
C1112      C1116   1.475   1_655  S
C1112      C1113   1.407       .  A
C1113      C1114   1.401       .  A
C1113     Br1125   1.918       .  S
C1114      H1117   1.083       .  S
C1116      C1118   1.402       .  A
C1116      C1122   1.405       .  A
C1118      C1119   1.405       .  A
C1118      H1123   1.083       .  S
C1119      C1120   1.417       .  A
C1119     Br1127   1.920       .  S
C1120      C1121   1.404       .  A
C1121      C1122   1.394       .  A
C1121      H1124   1.084       .  S
C1122     Br1128   1.921       .  S
C1129      C1130   1.416       .  A
C1129      C1134   1.407       .  A
C1130      C1131   1.403       .  A
C1130     Br1146   1.920       .  S
C1131      C1132   1.403       .  A
C1131      H1135   1.083       .  S
C1132      C1136   1.482       .  S
C1132      C1133   1.406       .  A
C1133      C1134   1.398       .  A
C1133     Br1145   1.919       .  S
C1134      H1137   1.083       .  S
C1136      C1138   1.405       .  A
C1136      C1142   1.405       .  A
C1138      C1139   1.406       .  A
C1138      H1143   1.084       .  S
C1139      C1140   1.412       .  A
C1139     Br1147   1.916       .  S
C1140      C1141   1.406       .  A
C1141      C1142   1.395       .  A
C1141      H1144   1.084       .  S
C1142     Br1148   1.920       .  S
C1149      C1150   1.408       .  A
C1149      C1154   1.398       .  A
C1150      C1151   1.400       .  A
C1150     Br1166   1.917       .  S
C1151      C1152   1.403       .  A
C1151      H1155   1.083       .  S
C1152      C1156   1.470       .  S
C1152      C1153   1.406       .  A
C1153      C1154   1.392       .  A
C1153     Br1165   1.920       .  S
C1154      H1157   1.075       .  S
C1156      C1158   1.397       .  A
C1156      C1162   1.404       .  A
C1158      C1159   1.396       .  A
C1158      H1163   1.084       .  S
C1159      C1160   1.419       .  A
C1159     Br1167   1.923       .  S
C1160      C1161   1.409       .  A
C1161      C1162   1.398       .  A
C1161      H1164   1.083       .  S
C1162     Br1168   1.919       .  S
C1169      C1170   1.416       .  A
C1169      C1174   1.407       .  A
C1170      C1171   1.402       .  A
C1170     Br1186   1.920       .  S
C1171      C1172   1.401       .  A
C1171      H1175   1.084       .  S
C1172      C1176   1.475   1_655  S
C1172      C1173   1.405       .  A
C1173      C1174   1.395       .  A
C1173     Br1185   1.920   1_655  S
C1174      H1177   1.084       .  S
C1176      C1178   1.401       .  A
C1176      C1182   1.405       .  A
C1178      C1179   1.401       .  A
C1178      H1183   1.084       .  S
C1179      C1180   1.416       .  A
C1179     Br1187   1.920       .  S
C1180      C1181   1.406       .  A
C1181      C1182   1.396       .  A
C1181      H1184   1.084       .  S
C1182     Br1188   1.920       .  S
C1189      C1190   1.415       .  A
C1189      C1194   1.407       .  A
C1190      C1191   1.400       .  A
C1190     Br1206   1.920       .  S
C1191      C1192   1.400       .  A
C1191      H1195   1.083       .  S
C1192      C1196   1.477       .  S
C1192      C1193   1.406       .  A
C1193      C1194   1.400       .  A
C1193     Br1205   1.919       .  S
C1194      H1197   1.083       .  S
C1196      C1198   1.403       .  A
C1196      C1202   1.404       .  A
C1198      C1199   1.403       .  A
C1198      H1203   1.083       .  S
C1199      C1200   1.412       .  A
C1199     Br1207   1.919       .  S
C1200      C1201   1.404       .  A
C1201      C1202   1.396       .  A
C1201      H1204   1.081       .  S
C1202     Br1208   1.918       .  S
C1209      C1210   1.415       .  A
C1209      C1214   1.409       .  A
C1210      C1211   1.400       .  A
C1210     Br1226   1.919       .  S
C1211      C1212   1.402       .  A
C1211      H1215   1.084       .  S
C1212      C1216   1.480       .  S
C1212      C1213   1.406       .  A
C1213      C1214   1.399       .  A
C1213     Br1225   1.919       .  S
C1214      H1217   1.083       .  S
C1216      C1218   1.403       .  A
C1216      C1222   1.404       .  A
C1218      C1219   1.404       .  A
C1218      H1223   1.083       .  S
C1219      C1220   1.418       .  A
C1219     Br1227   1.920       .  S
C1220      C1221   1.408       .  A
C1221      C1222   1.395       .  A
C1221      H1224   1.083       .  S
C1222     Br1228   1.920       .  S
C1229      C1230   1.415       .  A
C1229      C1234   1.405       .  A
C1230      C1231   1.401       .  A
C1230     Br1246   1.917       .  S
C1231      C1232   1.400       .  A
C1231      H1235   1.084       .  S
C1232      C1236   1.480       .  S
C1232      C1233   1.408       .  A
C1233      C1234   1.402       .  A
C1233     Br1245   1.919       .  S
C1234      H1237   1.083       .  S
C1236      C1238   1.401       .  A
C1236      C1242   1.409       .  A
C1238      C1239   1.397       .  A
C1238      H1243   1.083       .  S
C1239      C1240   1.408       .  A
C1239     Br1247   1.917       .  S
C1240      C1241   1.405       .  A
C1241      C1242   1.404       .  A
C1241      H1244   1.084       .  S
C1242     Br1248   1.917       .  S
C1249      C1250   1.415       .  A
C1249      C1254   1.408       .  A
C1250      C1251   1.401       .  A
C1250     Br1266   1.921       .  S
C1251      C1252   1.404       .  A
C1251      H1255   1.084       .  S
C1252      C1256   1.483       .  S
C1252      C1253   1.407       .  A
C1253      C1254   1.397       .  A
C1253     Br1265   1.920       .  S
C1254      H1257   1.083       .  S
C1256      C1258   1.401       .  A
C1256      C1262   1.411       .  A
C1258      C1259   1.397       .  A
C1258      H1263   1.084       .  S
C1259      C1260   1.414       .  A
C1259     Br1267   1.921       .  S
C1260      C1261   1.406       .  A
C1261      C1262   1.403       .  A
C1261      H1264   1.083       .  S
C1262     Br1268   1.920       .  S
C1269      C1270   1.417       .  A
C1269      C1274   1.407       .  A
C1270      C1271   1.406       .  A
C1270     Br1286   1.920       .  S
C1271      C1272   1.403       .  A
C1271      H1275   1.083       .  S
C1272      C1276   1.480       .  S
C1272      C1273   1.405       .  A
C1273      C1274   1.394       .  A
C1273     Br1285   1.920       .  S
C1274      H1277   1.083       .  S
C1276      C1278   1.401       .  A
C1276      C1282   1.407       .  A
C1278      C1279   1.402       .  A
C1278      H1283   1.084       .  S
C1279      C1280   1.416       .  A
C1279     Br1287   1.920       .  S
C1280      C1281   1.406       .  A
C1281      C1282   1.397       .  A
C1281      H1284   1.084       .  S
C1282     Br1288   1.920       .  S
C1289      C1290   1.419       .  A
C1289      C1294   1.410       .  A
C1290      C1291   1.398       .  A
C1290     Br1306   1.918       .  S
C1291      C1292   1.398       .  A
C1291      H1295   1.084       .  S
C1292      C1296   1.478       .  S
C1292      C1293   1.404       .  A
C1293      C1294   1.401       .  A
C1293     Br1305   1.917       .  S
C1294      H1297   1.084       .  S
C1296      C1298   1.400       .  A
C1296      C1302   1.404       .  A
C1298      C1299   1.403       .  A
C1298      H1303   1.083       .  S
C1299      C1300   1.419       .  A
C1299     Br1307   1.921       .  S
C1300      C1301   1.408       .  A
C1301      C1302   1.398       .  A
C1301      H1304   1.083       .  S
C1302     Br1308   1.919       .  S
C1309      C1310   1.416       .  A
C1309      C1314   1.407       .  A
C1310      C1311   1.401       .  A
C1310     Br1326   1.920       .  S
C1311      C1312   1.401       .  A
C1311      H1315   1.084       .  S
C1312      C1316   1.474       .  S
C1312      C1313   1.404       .  A
C1313      C1314   1.396       .  A
C1313     Br1325   1.919       .  S
C1314      H1317   1.083       .  S
C1316      C1318   1.398       .  A
C1316      C1322   1.405       .  A
C1318      C1319   1.398       .  A
C1318      H1323   1.084       .  S
C1319      C1320   1.417       .  A
C1319     Br1327   1.922       .  S
C1320      C1321   1.408       .  A
C1321      C1322   1.400       .  A
C1321      H1324   1.083       .  S
C1322     Br1328   1.918       .  S
C1329      C1330   1.412       .  A
C1329      C1334   1.403       .  A
C1330      C1331   1.398       .  A
C1330     Br1346   1.921       .  S
C1331      C1332   1.401       .  A
C1331      H1335   1.083       .  S
C1332      C1336   1.476       .  S
C1332      C1333   1.408       .  A
C1333      C1334   1.399       .  A
C1333     Br1345   1.918       .  S
C1334      H1337   1.083       .  S
C1336      C1338   1.400       .  A
C1336      C1342   1.408       .  A
C1338      C1339   1.396       .  A
C1338      H1343   1.084       .  S
C1339      C1340   1.408       .  A
C1339     Br1347   1.912       .  S
C1340      C1341   1.404   1_655  A
C1341      C1342   1.400   1_455  A
C1341      H1344   1.084       .  S
C1342     Br1348   1.918       .  S
C1349      C1350   1.416       .  A
C1349      C1354   1.407       .  A
C1350      C1351   1.403       .  A
C1350     Br1366   1.920       .  S
C1351      C1352   1.403       .  A
C1351      H1355   1.083       .  S
C1352      C1356   1.479       .  S
C1352      C1353   1.405       .  A
C1353      C1354   1.396       .  A
C1353     Br1365   1.919       .  S
C1354      H1357   1.083       .  S
C1356      C1358   1.401       .  A
C1356      C1362   1.404       .  A
C1358      C1359   1.402       .  A
C1358      H1363   1.084       .  S
C1359      C1360   1.418       .  A
C1359     Br1367   1.921       .  S
C1360      C1361   1.410       .  A
C1361      C1362   1.398       .  A
C1361      H1364   1.083       .  S
C1362     Br1368   1.919       .  S
C1369      C1370   1.414       .  A
C1369      C1374   1.406       .  A
C1370      C1371   1.399       .  A
C1370     Br1386   1.919       .  S
C1371      C1372   1.399       .  A
C1371      H1375   1.084       .  S
C1372      C1376   1.469       .  S
C1372      C1373   1.404       .  A
C1373      C1374   1.395       .  A
C1373     Br1385   1.920       .  S
C1374      H1377   1.084       .  S
C1376      C1378   1.400       .  A
C1376      C1382   1.405       .  A
C1378      C1379   1.399       .  A
C1378      H1383   1.084       .  S
C1379      C1380   1.414       .  A
C1379     Br1387   1.920       .  S
C1380      C1381   1.404       .  A
C1381      C1382   1.393       .  A
C1381      H1384   1.084       .  S
C1382     Br1388   1.920       .  S
C1389      C1390   1.416       .  A
C1389      C1394   1.408       .  A
C1390      C1391   1.403       .  A
C1390     Br1406   1.920       .  S
C1391      C1392   1.402       .  A
C1391      H1395   1.083       .  S
C1392      C1396   1.481       .  S
C1392      C1393   1.405       .  A
C1393      C1394   1.399       .  A
C1393     Br1405   1.918       .  S
C1394      H1397   1.083       .  S
C1396      C1398   1.403       .  A
C1396      C1402   1.407       .  A
C1398      C1399   1.404       .  A
C1398      H1403   1.083       .  S
C1399      C1400   1.410       .  A
C1399     Br1407   1.917       .  S
C1400      C1401   1.402       .  A
C1401      C1402   1.398       .  A
C1401      H1404   1.082       .  S
C1402     Br1408   1.918       .  S
C1409      C1410   1.414       .  A
C1409      C1414   1.405       .  A
C1410      C1411   1.395       .  A
C1410     Br1426   1.923       .  S
C1411      C1412   1.399       .  A
C1411      H1415   1.084       .  S
C1412      C1416   1.470       .  S
C1412      C1413   1.405       .  A
C1413      C1414   1.398       .  A
C1413     Br1425   1.917       .  S
C1414      H1417   1.083       .  S
C1416      C1418   1.398       .  A
C1416      C1422   1.404       .  A
C1418      C1419   1.399       .  A
C1418      H1423   1.084       .  S
C1419      C1420   1.417       .  A
C1419     Br1427   1.921       .  S
C1420      C1421   1.408       .  A
C1421      C1422   1.397       .  A
C1421      H1424   1.083       .  S
C1422     Br1428   1.920       .  S
C1429      C1430   1.410       .  A
C1429      C1434   1.404       .  A
C1430      C1431   1.397       .  A
C1430     Br1446   1.921       .  S
C1431      C1432   1.401       .  A
C1431      H1435   1.084       .  S
C1432      C1436   1.475       .  S
C1432      C1433   1.407       .  A
C1433      C1434   1.400       .  A
C1433     Br1445   1.918       .  S
C1434      H1437   1.083       .  S
C1436      C1438   1.401       .  A
C1436      C1442   1.406       .  A
C1438      C1439   1.401       .  A
C1438      H1443   1.084       .  S
C1439      C1440   1.415       .  A
C1439     Br1447   1.921       .  S
C1440      C1441   1.405       .  A
C1441      C1442   1.397       .  A
C1441      H1444   1.083       .  S
C1442     Br1448   1.919       .  S
C1449      C1450   1.413       .  A
C1449      C1454   1.406       .  A
C1450      C1451   1.397       .  A
C1450     Br1466   1.922       .  S
C1451      C1452   1.400       .  A
C1451      H1455   1.084       .  S
C1452      C1456   1.475       .  S
C1452      C1453   1.406       .  A
C1453      C1454   1.400       .  A
C1453     Br1465   1.918       .  S
C1454      H1457   1.083       .  S
C1456      C1458   1.401       .  A
C1456      C1462   1.406       .  A
C1458      C1459   1.398   1_565  A
C1458      H1463   1.084       .  S
C1459      C1460   1.413       .  A
C1459     Br1467   1.922       .  S
C1460      C1461   1.405       .  A
C1461      C1462   1.400   1_545  A
C1461      H1464   1.083       .  S
C1462     Br1468   1.918       .  S
C1469      C1470   1.415       .  A
C1469      C1474   1.405       .  A
C1470      C1471   1.401       .  A
C1470     Br1486   1.921       .  S
C1471      C1472   1.402       .  A
C1471      H1475   1.084       .  S
C1472      C1476   1.475       .  S
C1472      C1473   1.406       .  A
C1473      C1474   1.395       .  A
C1473     Br1485   1.920       .  S
C1474      H1477   1.083       .  S
C1476      C1478   1.400       .  A
C1476      C1482   1.405       .  A
C1478      C1479   1.397       .  A
C1478      H1483   1.084       .  S
C1479      C1480   1.416       .  A
C1479     Br1487   1.922       .  S
C1480      C1481   1.408       .  A
C1481      C1482   1.398       .  A
C1481      H1484   1.083       .  S
C1482     Br1488   1.919       .  S
C1489      C1490   1.416       .  A
C1489      C1494   1.406       .  A
C1490      C1491   1.403       .  A
C1490     Br1506   1.920       .  S
C1491      C1492   1.402       .  A
C1491      H1495   1.084       .  S
C1492      C1496   1.483       .  S
C1492      C1493   1.407       .  A
C1493      C1494   1.400       .  A
C1493     Br1505   1.920       .  S
C1494      H1497   1.083       .  S
C1496      C1498   1.401       .  A
C1496      C1502   1.408       .  A
C1498      C1499   1.400       .  A
C1498      H1503   1.084       .  S
C1499      C1500   1.415       .  A
C1499     Br1507   1.921       .  S
C1500      C1501   1.407       .  A
C1501      C1502   1.401       .  A
C1501      H1504   1.083       .  S
C1502     Br1508   1.918       .  S
C1509      C1510   1.411       .  A
C1509      C1514   1.405       .  A
C1510      C1511   1.399       .  A
C1510     Br1526   1.920       .  S
C1511      C1512   1.402       .  A
C1511      H1515   1.083       .  S
C1512      C1516   1.478       .  S
C1512      C1513   1.408       .  A
C1513      C1514   1.398       .  A
C1513     Br1525   1.919       .  S
C1514      H1517   1.084       .  S
C1516      C1518   1.399       .  A
C1516      C1522   1.407       .  A
C1518      C1519   1.398       .  A
C1518      H1523   1.084       .  S
C1519      C1520   1.418       .  A
C1519     Br1527   1.922       .  S
C1520      C1521   1.408       .  A
C1521      C1522   1.401       .  A
C1521      H1524   1.083       .  S
C1522     Br1528   1.919       .  S
C1529      C1530   1.416       .  A
C1529      C1534   1.406       .  A
C1530      C1531   1.402       .  A
C1530     Br1546   1.921       .  S
C1531      C1532   1.401       .  A
C1531      H1535   1.084       .  S
C1532      C1536   1.474       .  S
C1532      C1533   1.405       .  A
C1533      C1534   1.394       .  A
C1533     Br1545   1.919       .  S
C1534      H1537   1.084       .  S
C1536      C1538   1.401       .  A
C1536      C1542   1.405       .  A
C1538      C1539   1.402       .  A
C1538      H1543   1.083       .  S
C1539      C1540   1.414       .  A
C1539     Br1547   1.919       .  S
C1540      C1541   1.405       .  A
C1541      C1542   1.396       .  A
C1541      H1544   1.084       .  S
C1542     Br1548   1.920       .  S
C1549      C1550   1.413       .  A
C1549      C1554   1.406       .  A
C1550      C1551   1.398       .  A
C1550     Br1566   1.920       .  S
C1551      C1552   1.400       .  A
C1551      H1555   1.084       .  S
C1552      C1556   1.476       .  S
C1552      C1553   1.407       .  A
C1553      C1554   1.398       .  A
C1553     Br1565   1.920       .  S
C1554      H1557   1.084       .  S
C1556      C1558   1.401       .  A
C1556      C1562   1.408       .  A
C1558      C1559   1.399       .  A
C1558      H1563   1.084       .  S
C1559      C1560   1.414       .  A
C1559     Br1567   1.921       .  S
C1560      C1561   1.404       .  A
C1561      C1562   1.396       .  A
C1561      H1564   1.084       .  S
C1562     Br1568   1.921       .  S
C1569      C1570   1.419       .  A
C1569      C1574   1.407       .  A
C1570      C1571   1.400       .  A
C1570     Br1586   1.922       .  S
C1571      C1572   1.399       .  A
C1571      H1575   1.084       .  S
C1572      C1576   1.477       .  S
C1572      C1573   1.406       .  A
C1573      C1574   1.401       .  A
C1573     Br1585   1.918       .  S
C1574      H1577   1.083       .  S
C1576      C1578   1.400       .  A
C1576      C1582   1.406       .  A
C1578      C1579   1.399       .  A
C1578      H1583   1.084       .  S
C1579      C1580   1.415       .  A
C1579     Br1587   1.921       .  S
C1580      C1581   1.408       .  A
C1581      C1582   1.401       .  A
C1581      H1584   1.083       .  S
C1582     Br1588   1.918       .  S
C1589      C1590   1.410       .  A
C1589      C1594   1.404       .  A
C1590      C1591   1.399       .  A
C1590     Br1606   1.919       .  S
C1591      C1592   1.401       .  A
C1591      H1595   1.084       .  S
C1592      C1596   1.470       .  S
C1592      C1593   1.405       .  A
C1593      C1594   1.395       .  A
C1593     Br1605   1.919       .  S
C1594      H1597   1.085       .  S
C1596      C1598   1.399       .  A
C1596      C1602   1.404       .  A
C1598      C1599   1.396       .  A
C1598      H1603   1.084       .  S
C1599      C1600   1.413       .  A
C1599     Br1607   1.920       .  S
C1600      C1601   1.407       .  A
C1601      C1602   1.398       .  A
C1601      H1604   1.084       .  S
C1602     Br1608   1.918       .  S
C1609      C1610   1.414       .  A
C1609      C1614   1.405       .  A
C1610      C1611   1.402       .  A
C1610     Br1626   1.920       .  S
C1611      C1612   1.402       .  A
C1611      H1615   1.084       .  S
C1612      C1616   1.471   1_545  S
C1612      C1613   1.403       .  A
C1613      C1614   1.391       .  A
C1613     Br1625   1.920   1_545  S
C1614      H1617   1.084       .  S
C1616      C1618   1.399       .  A
C1616      C1622   1.405       .  A
C1618      C1619   1.395       .  A
C1618      H1623   1.084       .  S
C1619      C1620   1.415       .  A
C1619     Br1627   1.922       .  S
C1620      C1621   1.407       .  A
C1621      C1622   1.400       .  A
C1621      H1624   1.083       .  S
C1622     Br1628   1.918       .  S
C1629      C1630   1.416       .  A
C1629      C1634   1.406       .  A
C1630      C1631   1.400       .  A
C1630     Br1646   1.921       .  S
C1631      C1632   1.400       .  A
C1631      H1635   1.084       .  S
C1632      C1636   1.471       .  S
C1632      C1633   1.403       .  A
C1633      C1634   1.396       .  A
C1633     Br1645   1.918       .  S
C1634      H1637   1.083       .  S
C1636      C1638   1.398       .  A
C1636      C1642   1.406       .  A
C1638      C1639   1.396       .  A
C1638      H1643   1.084       .  S
C1639      C1640   1.414       .  A
C1639     Br1647   1.921       .  S
C1640      C1641   1.405       .  A
C1641      C1642   1.399       .  A
C1641      H1644   1.084       .  S
C1642     Br1648   1.918       .  S
C1649      C1650   1.415       .  A
C1649      C1654   1.409       .  A
C1650      C1651   1.401       .  A
C1650     Br1666   1.920       .  S
C1651      C1652   1.403       .  A
C1651      H1655   1.084       .  S
C1652      C1656   1.484       .  S
C1652      C1653   1.408       .  A
C1653      C1654   1.400       .  A
C1653     Br1665   1.920       .  S
C1654      H1657   1.083       .  S
C1656      C1658   1.403       .  A
C1656      C1662   1.407       .  A
C1658      C1659   1.402       .  A
C1658      H1663   1.083       .  S
C1659      C1660   1.416       .  A
C1659     Br1667   1.920       .  S
C1660      C1661   1.408       .  A
C1661      C1662   1.397       .  A
C1661      H1664   1.083       .  S
C1662     Br1668   1.920       .  S
C1669      C1670   1.413       .  A
C1669      C1674   1.407       .  A
C1670      C1671   1.395       .  A
C1670     Br1686   1.922       .  S
C1671      C1672   1.399       .  A
C1671      H1675   1.084       .  S
C1672      C1676   1.473       .  S
C1672      C1673   1.405       .  A
C1673      C1674   1.401       .  A
C1673     Br1685   1.917       .  S
C1674      H1677   1.083       .  S
C1676      C1678   1.400       .  A
C1676      C1682   1.405       .  A
C1678      C1679   1.397       .  A
C1678      H1683   1.084       .  S
C1679      C1680   1.415       .  A
C1679     Br1687   1.921       .  S
C1680      C1681   1.408       .  A
C1681      C1682   1.398       .  A
C1681      H1684   1.083       .  S
C1682     Br1688   1.919       .  S
C1689      C1690   1.413       .  A
C1689      C1694   1.404       .  A
C1690      C1691   1.397       .  A
C1690     Br1706   1.922       .  S
C1691      C1692   1.401       .  A
C1691      H1695   1.084       .  S
C1692      C1696   1.479       .  S
C1692      C1693   1.410       .  A
C1693      C1694   1.398       .  A
C1693     Br1705   1.920       .  S
C1694      H1697   1.084       .  S
C1696      C1698   1.403       .  A
C1696      C1702   1.405       .  A
C1698      C1699   1.402       .  A
C1698      H1703   1.084       .  S
C1699      C1700   1.417       .  A
C1699     Br1707   1.921       .  S
C1700      C1701   1.409       .  A
C1701      C1702   1.395       .  A
C1701      H1704   1.083       .  S
C1702     Br1708   1.921       .  S
C1709      C1710   1.415       .  A
C1709      C1714   1.405       .  A
C1710      C1711   1.398       .  A
C1710     Br1726   1.922       .  S
C1711      C1712   1.402       .  A
C1711      H1715   1.084       .  S
C1712      C1716   1.482       .  S
C1712      C1713   1.409       .  A
C1713      C1714   1.399       .  A
C1713     Br1725   1.920       .  S
C1714      H1717   1.083       .  S
C1716      C1718   1.404       .  A
C1716      C1722   1.409       .  A
C1718      C1719   1.398       .  A
C1718      H1723   1.084       .  S
C1719      C1720   1.410       .  A
C1719     Br1727   1.919       .  S
C1720      C1721   1.405       .  A
C1721      C1722   1.397       .  A
C1721      H1724   1.084       .  S
C1722     Br1728   1.921       .  S
C1729      C1730   1.411       .  A
C1729      C1734   1.407       .  A
C1730      C1731   1.396       .  A
C1730     Br1746   1.914       .  S
C1731      C1732   1.399       .  A
C1731      H1735   1.084       .  S
C1732      C1736   1.477       .  S
C1732      C1733   1.407       .  A
C1733      C1734   1.402       .  A
C1733     Br1745   1.916       .  S
C1734      H1737   1.083       .  S
C1736      C1738   1.398       .  A
C1736      C1742   1.407       .  A
C1738      C1739   1.400       .  A
C1738      H1743   1.084       .  S
C1739      C1740   1.418       .  A
C1739     Br1747   1.921       .  S
C1740      C1741   1.407       .  A
C1741      C1742   1.400       .  A
C1741      H1744   1.084       .  S
C1742     Br1748   1.919       .  S
C1749      C1750   1.410       .  A
C1749      C1754   1.405       .  A
C1750      C1751   1.398       .  A
C1750     Br1766   1.915       .  S
C1751      C1752   1.400       .  A
C1751      H1755   1.083       .  S
C1752      C1756   1.471       .  S
C1752      C1753   1.405       .  A
C1753      C1754   1.398       .  A
C1753     Br1765   1.918       .  S
C1754      H1757   1.082       .  S
C1756      C1758   1.401       .  A
C1756      C1762   1.404       .  A
C1758      C1759   1.400       .  A
C1758      H1763   1.084       .  S
C1759      C1760   1.411       .  A
C1759     Br1767   1.919       .  S
C1760      C1761   1.405       .  A
C1761      C1762   1.396       .  A
C1761      H1764   1.084       .  S
C1762     Br1768   1.919       .  S
C1769      C1770   1.424       .  A
C1769      C1774   1.415       .  A
C1770      C1771   1.399       .  A
C1770     Br1786   1.921       .  S
C1771      C1772   1.397       .  A
C1771      H1775   1.085       .  S
C1772      C1776   1.476       .  S
C1772      C1773   1.402       .  A
C1773      C1774   1.399       .  A
C1773     Br1785   1.918       .  S
C1774      H1777   1.078       .  S
C1776      C1778   1.402       .  A
C1776      C1782   1.402       .  A
C1778      C1779   1.407       .  A
C1778      H1783   1.084       .  S
C1779      C1780   1.421       .  A
C1779     Br1787   1.922       .  S
C1780      C1781   1.411       .  A
C1781      C1782   1.390       .  A
C1781      H1784   1.079       .  S
C1782     Br1788   1.922       .  S
C1789      C1790   1.418       .  A
C1789      C1794   1.411       .  A
C1790      C1791   1.393       .  A
C1790     Br1806   1.913       .  S
C1791      C1792   1.395       .  A
C1791      H1795   1.085       .  S
C1792      C1796   1.472       .  S
C1792      C1793   1.402       .  A
C1793      C1794   1.401       .  A
C1793     Br1805   1.916       .  S
C1794      H1797   1.083       .  S
C1796      C1798   1.401       .  A
C1796      C1802   1.403       .  A
C1798      C1799   1.401       .  A
C1798      H1803   1.083       .  S
C1799      C1800   1.416       .  A
C1799     Br1807   1.921       .  S
C1800      C1801   1.407       .  A
C1801      C1802   1.395       .  A
C1801      H1804   1.083       .  S
C1802     Br1808   1.919       .  S
C1809      C1810   1.416       .  A
C1809      C1814   1.407       .  A
C1810      C1811   1.398       .  A
C1810     Br1826   1.916       .  S
C1811      C1812   1.401       .  A
C1811      H1815   1.084       .  S
C1812      C1816   1.490       .  S
C1812      C1813   1.411       .  A
C1813      C1814   1.403       .  A
C1813     Br1825   1.918       .  S
C1814      H1817   1.083       .  S
C1816      C1818   1.404       .  A
C1816      C1822   1.412       .  A
C1818      C1819   1.399       .  A
C1818      H1823   1.083       .  S
C1819      C1820   1.414       .  A
C1819     Br1827   1.922       .  S
C1820      C1821   1.405       .  A
C1821      C1822   1.402       .  A
C1821      H1824   1.083       .  S
C1822     Br1828   1.919       .  S
C1829      C1830   1.412       .  A
C1829      C1834   1.407       .  A
C1830      C1831   1.401       .  A
C1830     Br1846   1.918       .  S
C1831      C1832   1.404   1_545  A
C1831      H1835   1.083   1_545  S
C1832      C1836   1.478       .  S
C1832      C1833   1.408   1_565  A
C1833      C1834   1.391       .  A
C1833     Br1845   1.923   1_545  S
C1834      H1837   1.083       .  S
C1836      C1838   1.405       .  A
C1836      C1842   1.409       .  A
C1838      C1839   1.398       .  A
C1838      H1843   1.084       .  S
C1839      C1840   1.405       .  A
C1839     Br1847   1.917       .  S
C1840      C1841   1.401       .  A
C1841      C1842   1.395       .  A
C1841      H1844   1.083       .  S
C1842     Br1848   1.922       .  S
C1849      C1850   1.414       .  A
C1849      C1854   1.406       .  A
C1850      C1851   1.397       .  A
C1850     Br1866   1.923       .  S
C1851      C1852   1.404   1_545  A
C1851      H1855   1.084   1_545  S
C1852      C1856   1.490       .  S
C1852      C1853   1.412   1_565  A
C1853      C1854   1.404       .  A
C1853     Br1865   1.920   1_545  S
C1854      H1857   1.083       .  S
C1856      C1858   1.406       .  A
C1856      C1862   1.415       .  A
C1858      C1859   1.397       .  A
C1858      H1863   1.083       .  S
C1859      C1860   1.407       .  A
C1859     Br1867   1.920       .  S
C1860      C1861   1.402       .  A
C1861      C1862   1.403       .  A
C1861      H1864   1.084       .  S
C1862     Br1868   1.921       .  S
C1869      C1870   1.425       .  A
C1869      C1874   1.416       .  A
C1870      C1871   1.401       .  A
C1870     Br1886   1.923       .  S
C1871      C1872   1.399       .  A
C1871      H1875   1.084       .  S
C1872      C1876   1.482       .  S
C1872      C1873   1.403       .  A
C1873      C1874   1.401       .  A
C1873     Br1885   1.919       .  S
C1874      H1877   1.076       .  S
C1876      C1878   1.403       .  A
C1876      C1882   1.401       .  A
C1878      C1879   1.410       .  A
C1878      H1883   1.084       .  S
C1879      C1880   1.423       .  A
C1879     Br1887   1.920       .  S
C1880      C1881   1.415       .  A
C1881      C1882   1.390       .  A
C1881      H1884   1.077       .  S
C1882     Br1888   1.924       .  S
C1889      C1890   1.414       .  A
C1889      C1894   1.406       .  A
C1890      C1891   1.401       .  A
C1890     Br1906   1.920       .  S
C1891      C1892   1.402       .  A
C1891      H1895   1.083       .  S
C1892      C1896   1.478       .  S
C1892      C1893   1.407       .  A
C1893      C1894   1.396       .  A
C1893     Br1905   1.921       .  S
C1894      H1897   1.083       .  S
C1896      C1898   1.402       .  A
C1896      C1902   1.406       .  A
C1898      C1899   1.399       .  A
C1898      H1903   1.083       .  S
C1899      C1900   1.413       .  A
C1899     Br1907   1.920       .  S
C1900      C1901   1.406       .  A
C1901      C1902   1.397       .  A
C1901      H1904   1.084       .  S
C1902     Br1908   1.919       .  S
C1909      C1910   1.415       .  A
C1909      C1914   1.406       .  A
C1910      C1911   1.399       .  A
C1910     Br1926   1.921       .  S
C1911      C1912   1.400       .  A
C1911      H1915   1.084       .  S
C1912      C1916   1.475       .  S
C1912      C1913   1.406       .  A
C1913      C1914   1.399       .  A
C1913     Br1925   1.919       .  S
C1914      H1917   1.083       .  S
C1916      C1918   1.402       .  A
C1916      C1922   1.407       .  A
C1918      C1919   1.401       .  A
C1918      H1923   1.084       .  S
C1919      C1920   1.410       .  A
C1919     Br1927   1.918       .  S
C1920      C1921   1.401       .  A
C1921      C1922   1.397       .  A
C1921      H1924   1.084       .  S
C1922     Br1928   1.918       .  S
C1929      C1930   1.424       .  A
C1929      C1934   1.412       .  A
C1930      C1931   1.409       .  A
C1930     Br1946   1.922       .  S
C1931      C1932   1.402       .  A
C1931      H1935   1.083       .  S
C1932      C1936   1.480       .  S
C1932      C1933   1.402       .  A
C1933      C1934   1.392       .  A
C1933     Br1945   1.922       .  S
C1934      H1937   1.078       .  S
C1936      C1938   1.397   1_556  A
C1936      C1942   1.403   1_556  A
C1938      C1939   1.400   1_565  A
C1938      H1943   1.084   1_564  S
C1939      C1940   1.425   1_545  A
C1939     Br1947   1.922       .  S
C1940      C1941   1.415       .  A
C1941      C1942   1.401       .  A
C1941      H1944   1.077       .  S
C1942     Br1948   1.919   1_554  S
C1949      C1950   1.417       .  A
C1949      C1954   1.407       .  A
C1950      C1951   1.401       .  A
C1950     Br1966   1.921       .  S
C1951      C1952   1.399       .  A
C1951      H1955   1.084       .  S
C1952      C1956   1.477       .  S
C1952      C1953   1.406       .  A
C1953      C1954   1.401       .  A
C1953     Br1965   1.920       .  S
C1954      H1957   1.083       .  S
C1956      C1958   1.402       .  A
C1956      C1962   1.408       .  A
C1958      C1959   1.401       .  A
C1958      H1963   1.083       .  S
C1959      C1960   1.411       .  A
C1959     Br1967   1.918       .  S
C1960      C1961   1.401       .  A
C1961      C1962   1.398       .  A
C1961      H1964   1.081       .  S
C1962     Br1968   1.919       .  S
C1969      C1970   1.416       .  A
C1969      C1974   1.412       .  A
C1970      C1971   1.399       .  A
C1970     Br1986   1.911       .  S
C1971      C1972   1.399       .  A
C1971      H1975   1.084       .  S
C1972      C1976   1.484       .  S
C1972      C1973   1.406       .  A
C1973      C1974   1.403       .  A
C1973     Br1985   1.918       .  S
C1974      H1977   1.083       .  S
C1976      C1978   1.402       .  A
C1976      C1982   1.408       .  A
C1978      C1979   1.402       .  A
C1978      H1983   1.084       .  S
C1979      C1980   1.416       .  A
C1979     Br1987   1.921       .  S
C1980      C1981   1.406       .  A
C1981      C1982   1.398       .  A
C1981      H1984   1.084       .  S
C1982     Br1988   1.919       .  S
C1989      C1990   1.414       .  A
C1989      C1994   1.407       .  A
C1990      C1991   1.397       .  A
C1990     Br2006   1.918   1_565  S
C1991      C1992   1.403       .  A
C1991      H1995   1.084       .  S
C1992      C1996   1.490       .  S
C1992      C1993   1.411       .  A
C1993      C1994   1.403       .  A
C1993     Br2005   1.918       .  S
C1994      H1997   1.093       .  S
C1996      C1998   1.407       .  A
C1996      C2002   1.413       .  A
C1998      C1999   1.405       .  A
C1998      H2003   1.076       .  S
C1999      C2000   1.410       .  A
C1999     Br2007   1.916       .  S
C2000      C2001   1.397       .  A
C2001      C2002   1.395       .  A
C2001      H2004   1.107   1_565  S
C2002     Br2008   1.920   1_565  S
C2009      C2010   1.407       .  A
C2009      C2014   1.401       .  A
C2010      C2011   1.395       .  A
C2010     Br2026   1.919   1_565  S
C2011      C2012   1.405       .  A
C2011      H2015   1.084   1_565  S
C2012      C2016   1.484       .  S
C2012      C2013   1.413       .  A
C2013      C2014   1.400       .  A
C2013     Br2025   1.920       .  S
C2014      H2017   1.084       .  S
C2016      C2018   1.403       .  A
C2016      C2022   1.411       .  A
C2018      C2019   1.392       .  A
C2018      H2023   1.084       .  S
C2019      C2020   1.413       .  A
C2019     Br2027   1.925   1_565  S
C2020      C2021   1.405       .  A
C2021      C2022   1.402       .  A
C2021      H2024   1.083       .  S
C2022     Br2028   1.919       .  S
C2029      C2030   1.421       .  A
C2029      C2034   1.416       .  A
C2030      C2031   1.410       .  A
C2030     Br2046   1.919       .  S
C2031      C2032   1.403       .  A
C2031      H2035   1.083       .  S
C2032      C2036   1.482       .  S
C2032      C2033   1.401       .  A
C2033      C2034   1.394       .  A
C2033     Br2045   1.922       .  S
C2034      H2037   1.078       .  S
C2036      C2038   1.397   1_556  A
C2036      C2042   1.405   1_556  A
C2038      C2039   1.398       .  A
C2038      H2043   1.083   1_554  S
C2039      C2040   1.424       .  A
C2039     Br2047   1.924       .  S
C2040      C2041   1.416       .  A
C2041      C2042   1.405       .  A
C2041      H2044   1.074   1_565  S
C2042     Br2048   1.918   1_565  S
C2049      C2050   1.415       .  A
C2049      C2054   1.406       .  A
C2050      C2051   1.399       .  A
C2050     Br2066   1.920       .  S
C2051      C2052   1.400       .  A
C2051      H2055   1.084       .  S
C2052      C2056   1.473       .  S
C2052      C2053   1.405       .  A
C2053      C2054   1.398       .  A
C2053     Br2065   1.919       .  S
C2054      H2057   1.083       .  S
C2056      C2058   1.399       .  A
C2056      C2062   1.406       .  A
C2058      C2059   1.397       .  A
C2058      H2063   1.084       .  S
C2059      C2060   1.413       .  A
C2059     Br2067   1.921       .  S
C2060      C2061   1.405       .  A
C2061      C2062   1.399       .  A
C2061      H2064   1.084       .  S
C2062     Br2068   1.918       .  S
C2069      C2070   1.411       .  A
C2069      C2074   1.406       .  A
C2070      C2071   1.396       .  A
C2070     Br2086   1.914       .  S
C2071      C2072   1.401       .  A
C2071      H2075   1.084       .  S
C2072      C2076   1.479       .  S
C2072      C2073   1.407       .  A
C2073      C2074   1.401       .  A
C2073     Br2085   1.917       .  S
C2074      H2077   1.084       .  S
C2076      C2078   1.402       .  A
C2076      C2082   1.407       .  A
C2078      C2079   1.402       .  A
C2078      H2083   1.084       .  S
C2079      C2080   1.416       .  A
C2079     Br2087   1.921       .  S
C2080      C2081   1.405       .  A
C2081      C2082   1.397       .  A
C2081      H2084   1.084       .  S
C2082     Br2088   1.920       .  S
C2089      C2090   1.416       .  A
C2089      C2094   1.407       .  A
C2090      C2091   1.398       .  A
C2090     Br2106   1.922       .  S
C2091      C2092   1.400       .  A
C2091      H2095   1.084       .  S
C2092      C2096   1.478       .  S
C2092      C2093   1.406       .  A
C2093      C2094   1.400       .  A
C2093     Br2105   1.918       .  S
C2094      H2097   1.083       .  S
C2096      C2098   1.400       .  A
C2096      C2102   1.408       .  A
C2098      C2099   1.398       .  A
C2098      H2103   1.084       .  S
C2099      C2100   1.414       .  A
C2099     Br2107   1.917       .  S
C2100      C2101   1.406       .  A
C2101      C2102   1.400       .  A
C2101      H2104   1.083       .  S
C2102     Br2108   1.919       .  S
C2109      C2110   1.413       .  A
C2109      C2114   1.406       .  A
C2110      C2111   1.398       .  A
C2110     Br2126   1.921       .  S
C2111      C2112   1.400       .  A
C2111      H2115   1.084       .  S
C2112      C2116   1.478       .  S
C2112      C2113   1.407       .  A
C2113      C2114   1.403       .  A
C2113     Br2125   1.917       .  S
C2114      H2117   1.083       .  S
C2116      C2118   1.399       .  A
C2116      C2122   1.406       .  A
C2118      C2119   1.397       .  A
C2118      H2123   1.084       .  S
C2119      C2120   1.414       .  A
C2119     Br2127   1.922       .  S
C2120      C2121   1.407       .  A
C2121      C2122   1.403       .  A
C2121      H2124   1.084       .  S
C2122     Br2128   1.917       .  S
C2129      C2130   1.420       .  A
C2129      C2134   1.409       .  A
C2130      C2131   1.401       .  A
C2130     Br2146   1.922       .  S
C2131      C2132   1.398       .  A
C2131      H2135   1.084       .  S
C2132      C2136   1.477       .  S
C2132      C2133   1.405       .  A
C2133      C2134   1.399       .  A
C2133     Br2145   1.920       .  S
C2134      H2137   1.083       .  S
C2136      C2138   1.403       .  A
C2136      C2142   1.404       .  A
C2138      C2139   1.405       .  A
C2138      H2143   1.083       .  S
C2139      C2140   1.415       .  A
C2139     Br2147   1.920       .  S
C2140      C2141   1.404       .  A
C2141      C2142   1.393       .  A
C2141      H2144   1.081       .  S
C2142     Br2148   1.920       .  S
C2149      C2150   1.416       .  A
C2149      C2154   1.408       .  A
C2150      C2151   1.398       .  A
C2150     Br2166   1.921       .  S
C2151      C2152   1.400       .  A
C2151      H2155   1.084       .  S
C2152      C2156   1.480       .  S
C2152      C2153   1.407       .  A
C2153      C2154   1.401       .  A
C2153     Br2165   1.919       .  S
C2154      H2157   1.084       .  S
C2156      C2158   1.402       .  A
C2156      C2162   1.408       .  A
C2158      C2159   1.400       .  A
C2158      H2163   1.084       .  S
C2159      C2160   1.416       .  A
C2159     Br2167   1.921       .  S
C2160      C2161   1.405       .  A
C2161      C2162   1.398       .  A
C2161      H2164   1.084       .  S
C2162     Br2168   1.919       .  S
C2169      C2170   1.414       .  A
C2169      C2174   1.407       .  A
C2170      C2171   1.403       .  A
C2170     Br2186   1.920       .  S
C2171      C2172   1.402       .  A
C2171      H2175   1.084       .  S
C2172      C2176   1.481       .  S
C2172      C2173   1.406       .  A
C2173      C2174   1.399       .  A
C2173     Br2185   1.919       .  S
C2174      H2177   1.083       .  S
C2176      C2178   1.398       .  A
C2176      C2182   1.406       .  A
C2178      C2179   1.401       .  A
C2178      H2183   1.083       .  S
C2179      C2180   1.421       .  A
C2179     Br2187   1.923       .  S
C2180      C2181   1.409       .  A
C2181      C2182   1.403       .  A
C2181      H2184   1.082       .  S
C2182     Br2188   1.919       .  S
C2189      C2190   1.413       .  A
C2189      C2194   1.405       .  A
C2190      C2191   1.397       .  A
C2190     Br2206   1.923       .  S
C2191      C2192   1.401       .  A
C2191      H2195   1.084       .  S
C2192      C2196   1.482       .  S
C2192      C2193   1.410       .  A
C2193      C2194   1.403       .  A
C2193     Br2205   1.918       .  S
C2194      H2197   1.083       .  S
C2196      C2198   1.403       .  A
C2196      C2202   1.408       .  A
C2198      C2199   1.401       .  A
C2198      H2203   1.083       .  S
C2199      C2200   1.413       .  A
C2199     Br2207   1.916       .  S
C2200      C2201   1.406       .  A
C2201      C2202   1.398       .  A
C2201      H2204   1.083       .  S
C2202     Br2208   1.919       .  S
C2209      C2210   1.411       .  A
C2209      C2214   1.403       .  A
C2210      C2211   1.400       .  A
C2210     Br2226   1.919       .  S
C2211      C2212   1.400       .  A
C2211      H2215   1.083       .  S
C2212      C2216   1.473       .  S
C2212      C2213   1.407       .  A
C2213      C2214   1.397       .  A
C2213     Br2225   1.919       .  S
C2214      H2217   1.084       .  S
C2216      C2218   1.400       .  A
C2216      C2222   1.403       .  A
C2218      C2219   1.399       .  A
C2218      H2223   1.084       .  S
C2219      C2220   1.417       .  A
C2219     Br2227   1.921       .  S
C2220      C2221   1.410       .  A
C2221      C2222   1.397       .  A
C2221      H2224   1.084       .  S
C2222     Br2228   1.918       .  S
C2229      C2230   1.411       .  A
C2229      C2234   1.403       .  A
C2230      C2231   1.401       .  A
C2230     Br2246   1.920       .  S
C2231      C2232   1.402       .  A
C2231      H2235   1.084       .  S
C2232      C2236   1.472       .  S
C2232      C2233   1.405       .  A
C2233      C2234   1.394       .  A
C2233     Br2245   1.920       .  S
C2234      H2237   1.085       .  S
C2236      C2238   1.399   1_565  A
C2236      C2242   1.404   1_565  A
C2238      C2239   1.399       .  A
C2238      H2243   1.084   1_545  S
C2239      C2240   1.417       .  A
C2239     Br2247   1.921       .  S
C2240      C2241   1.408       .  A
C2241      C2242   1.396       .  A
C2241      H2244   1.084       .  S
C2242     Br2248   1.920   1_545  S
C2249      C2250   1.416       .  A
C2249      C2254   1.410       .  A
C2250      C2251   1.400       .  A
C2250     Br2266   1.920       .  S
C2251      C2252   1.400       .  A
C2251      H2255   1.084       .  S
C2252      C2256   1.476       .  S
C2252      C2253   1.404       .  A
C2253      C2254   1.399       .  A
C2253     Br2265   1.919       .  S
C2254      H2257   1.083       .  S
C2256      C2258   1.402       .  A
C2256      C2262   1.406       .  A
C2258      C2259   1.402       .  A
C2258      H2263   1.084       .  S
C2259      C2260   1.413       .  A
C2259     Br2267   1.920       .  S
C2260      C2261   1.402       .  A
C2261      C2262   1.396       .  A
C2261      H2264   1.084       .  S
C2262     Br2268   1.918       .  S
C2269      C2270   1.413       .  A
C2269      C2274   1.405       .  A
C2270      C2271   1.398       .  A
C2270     Br2286   1.921       .  S
C2271      C2272   1.400       .  A
C2271      H2275   1.084       .  S
C2272      C2276   1.479       .  S
C2272      C2273   1.408       .  A
C2273      C2274   1.403       .  A
C2273     Br2285   1.918       .  S
C2274      H2277   1.083       .  S
C2276      C2278   1.401       .  A
C2276      C2282   1.406       .  A
C2278      C2279   1.402       .  A
C2278      H2283   1.084       .  S
C2279      C2280   1.417       .  A
C2279     Br2287   1.921       .  S
C2280      C2281   1.406       .  A
C2281      C2282   1.397       .  A
C2281      H2284   1.083       .  S
C2282     Br2288   1.919       .  S
C2289      C2290   1.419       .  A
C2289      C2294   1.408       .  A
C2290      C2291   1.403       .  A
C2290     Br2306   1.921       .  S
C2291      C2292   1.401       .  A
C2291      H2295   1.084       .  S
C2292      C2296   1.478       .  S
C2292      C2293   1.405       .  A
C2293      C2294   1.396       .  A
C2293     Br2305   1.920       .  S
C2294      H2297   1.083       .  S
C2296      C2298   1.397       .  A
C2296      C2302   1.404       .  A
C2298      C2299   1.399       .  A
C2298      H2303   1.084       .  S
C2299      C2300   1.423       .  A
C2299     Br2307   1.919       .  S
C2300      C2301   1.411       .  A
C2301      C2302   1.399       .  A
C2301      H2304   1.084       .  S
C2302     Br2308   1.918       .  S
C2309      C2310   1.419       .  A
C2309      C2314   1.408       .  A
C2310      C2311   1.399       .  A
C2310     Br2326   1.922       .  S
C2311      C2312   1.399       .  A
C2311      H2315   1.084       .  S
C2312      C2316   1.477       .  S
C2312      C2313   1.405       .  A
C2313      C2314   1.399       .  A
C2313     Br2325   1.919       .  S
C2314      H2317   1.083       .  S
C2316      C2318   1.403       .  A
C2316      C2322   1.407       .  A
C2318      C2319   1.402       .  A
C2318      H2323   1.084       .  S
C2319      C2320   1.412       .  A
C2319     Br2327   1.920       .  S
C2320      C2321   1.403       .  A
C2321      C2322   1.396       .  A
C2321      H2324   1.083       .  S
C2322     Br2328   1.920       .  S
C2329      C2330   1.420       .  A
C2329      C2334   1.407       .  A
C2330      C2331   1.401       .  A
C2330     Br2346   1.923       .  S
C2331      C2332   1.401       .  A
C2331      H2335   1.084       .  S
C2332      C2336   1.487       .  S
C2332      C2333   1.409       .  A
C2333      C2334   1.401       .  A
C2333     Br2345   1.919       .  S
C2334      H2337   1.083       .  S
C2336      C2338   1.401       .  A
C2336      C2342   1.410       .  A
C2338      C2339   1.399       .  A
C2338      H2343   1.084       .  S
C2339      C2340   1.417       .  A
C2339     Br2347   1.923       .  S
C2340      C2341   1.407       .  A
C2341      C2342   1.404       .  A
C2341      H2344   1.083       .  S
C2342     Br2348   1.919       .  S
C2349      C2350   1.412       .  A
C2349      C2354   1.404       .  A
C2350      C2351   1.400   1_545  A
C2350     Br2366   1.919       .  S
C2351      C2352   1.401       .  A
C2351      H2355   1.083       .  S
C2352      C2356   1.473       .  S
C2352      C2353   1.405       .  A
C2353      C2354   1.396   1_565  A
C2353     Br2365   1.919       .  S
C2354      H2357   1.084       .  S
C2356      C2358   1.398       .  A
C2356      C2362   1.405       .  A
C2358      C2359   1.394       .  A
C2358      H2363   1.084       .  S
C2359      C2360   1.414       .  A
C2359     Br2367   1.922       .  S
C2360      C2361   1.408       .  A
C2361      C2362   1.403       .  A
C2361      H2364   1.083       .  S
C2362     Br2368   1.917       .  S
C2369      C2370   1.418       .  A
C2369      C2374   1.411       .  A
C2370      C2371   1.402       .  A
C2370     Br2386   1.920       .  S
C2371      C2372   1.401       .  A
C2371      H2375   1.083       .  S
C2372      C2376   1.479       .  S
C2372      C2373   1.404       .  A
C2373      C2374   1.399       .  A
C2373     Br2385   1.919       .  S
C2374      H2377   1.083       .  S
C2376      C2378   1.401       .  A
C2376      C2382   1.406       .  A
C2378      C2379   1.401       .  A
C2378      H2383   1.084       .  S
C2379      C2380   1.415       .  A
C2379     Br2387   1.921       .  S
C2380      C2381   1.405       .  A
C2381      C2382   1.398       .  A
C2381      H2384   1.084       .  S
C2382     Br2388   1.918       .  S
C2389      C2390   1.418       .  A
C2389      C2394   1.407       .  A
C2390      C2391   1.399       .  A
C2390     Br2406   1.922       .  S
C2391      C2392   1.399       .  A
C2391      H2395   1.084       .  S
C2392      C2396   1.477       .  S
C2392      C2393   1.406       .  A
C2393      C2394   1.399       .  A
C2393     Br2405   1.918       .  S
C2394      H2397   1.083       .  S
C2396      C2398   1.401       .  A
C2396      C2402   1.407       .  A
C2398      C2399   1.401       .  A
C2398      H2403   1.084       .  S
C2399      C2400   1.414       .  A
C2399     Br2407   1.919       .  S
C2400      C2401   1.405       .  A
C2401      C2402   1.398       .  A
C2401      H2404   1.083       .  S
C2402     Br2408   1.920       .  S
C2409      C2410   1.416       .  A
C2409      C2414   1.406       .  A
C2410      C2411   1.400       .  A
C2410     Br2426   1.922       .  S
C2411      C2412   1.400       .  A
C2411      H2415   1.084       .  S
C2412      C2416   1.479       .  S
C2412      C2413   1.406       .  A
C2413      C2414   1.401       .  A
C2413     Br2425   1.918       .  S
C2414      H2417   1.083       .  S
C2416      C2418   1.400       .  A
C2416      C2422   1.404       .  A
C2418      C2419   1.402       .  A
C2418      H2423   1.083       .  S
C2419      C2420   1.418       .  A
C2419     Br2427   1.921       .  S
C2420      C2421   1.409       .  A
C2421      C2422   1.399       .  A
C2421      H2424   1.083       .  S
C2422     Br2428   1.918       .  S
C2429      C2430   1.405       .  A
C2429      C2434   1.402       .  A
C2430      C2431   1.400       .  A
C2430     Br2446   1.917       .  S
C2431      C2432   1.404       .  A
C2431      H2435   1.083       .  S
C2432      C2436   1.480       .  S
C2432      C2433   1.409       .  A
C2433      C2434   1.400       .  A
C2433     Br2445   1.919       .  S
C2434      H2437   1.083       .  S
C2436      C2438   1.401       .  A
C2436      C2442   1.407       .  A
C2438      C2439   1.401       .  A
C2438      H2443   1.084       .  S
C2439      C2440   1.417       .  A
C2439     Br2447   1.921       .  S
C2440      C2441   1.407       .  A
C2441      C2442   1.399       .  A
C2441      H2444   1.083       .  S
C2442     Br2448   1.919       .  S
C2449      C2450   1.419       .  A
C2449      C2454   1.407       .  A
C2450      C2451   1.402       .  A
C2450     Br2466   1.922       .  S
C2451      C2452   1.400       .  A
C2451      H2455   1.084       .  S
C2452      C2456   1.477       .  S
C2452      C2453   1.405       .  A
C2453      C2454   1.397       .  A
C2453     Br2465   1.920       .  S
C2454      H2457   1.083       .  S
C2456      C2458   1.399       .  A
C2456      C2462   1.405       .  A
C2458      C2459   1.399       .  A
C2458      H2463   1.084       .  S
C2459      C2460   1.418       .  A
C2459     Br2467   1.923       .  S
C2460      C2461   1.407       .  A
C2461      C2462   1.400       .  A
C2461      H2464   1.083       .  S
C2462     Br2468   1.918       .  S
C2469      C2470   1.416       .  A
C2469      C2474   1.406       .  A
C2470      C2471   1.401       .  A
C2470     Br2486   1.922       .  S
C2471      C2472   1.401       .  A
C2471      H2475   1.084       .  S
C2472      C2476   1.485       .  S
C2472      C2473   1.409       .  A
C2473      C2474   1.404       .  A
C2473     Br2485   1.918       .  S
C2474      H2477   1.083       .  S
C2476      C2478   1.402       .  A
C2476      C2482   1.409       .  A
C2478      C2479   1.402       .  A
C2478      H2483   1.083       .  S
C2479      C2480   1.416       .  A
C2479     Br2487   1.922       .  S
C2480      C2481   1.404       .  A
C2481      C2482   1.401       .  A
C2481      H2484   1.084       .  S
C2482     Br2488   1.918       .  S
C2489      C2490   1.415       .  A
C2489      C2494   1.405       .  A
C2490      C2491   1.405       .  A
C2490     Br2506   1.919       .  S
C2491      C2492   1.403       .  A
C2491      H2495   1.084       .  S
C2492      C2496   1.477       .  S
C2492      C2493   1.404       .  A
C2493      C2494   1.393       .  A
C2493     Br2505   1.919       .  S
C2494      H2497   1.084       .  S
C2496      C2498   1.399       .  A
C2496      C2502   1.406       .  A
C2498      C2499   1.401       .  A
C2498      H2503   1.084       .  S
C2499      C2500   1.417       .  A
C2499     Br2507   1.920       .  S
C2500      C2501   1.407       .  A
C2501      C2502   1.400       .  A
C2501      H2504   1.084       .  S
C2502     Br2508   1.919       .  S
C2509      C2510   1.413       .  A
C2509      C2514   1.406       .  A
C2510      C2511   1.402       .  A
C2510     Br2526   1.921       .  S
C2511      C2512   1.404       .  A
C2511      H2515   1.083       .  S
C2512      C2516   1.490       .  S
C2512      C2513   1.410       .  A
C2513      C2514   1.405       .  A
C2513     Br2525   1.918       .  S
C2514      H2517   1.084       .  S
C2516      C2518   1.402       .  A
C2516      C2522   1.411       .  A
C2518      C2519   1.400       .  A
C2518      H2523   1.084       .  S
C2519      C2520   1.413       .  A
C2519     Br2527   1.916       .  S
C2520      C2521   1.405       .  A
C2521      C2522   1.406       .  A
C2521      H2524   1.084       .  S
C2522     Br2528   1.917       .  S
