geometry optimzed in LAMMPS
_audit_creation_date              2020-11-30 
_audit_creation_method            'lammps2cif' 
_symmetry_space_group_name_H-M    'P1' 
_symmetry_Int_Tables_number       1 
_symmetry_cell_setting            triclinic 
loop_ 
_symmetry_equiv_pos_as_xyz 
  x,y,z 
_cell_length_a                    56.14048511 
_cell_length_b                    56.07877914628212 
_cell_length_c                    130.57048758154542 
_cell_angle_alpha                 89.80474293040757 
_cell_angle_beta                  89.97606829934887 
_cell_angle_gamma                 119.97758819479014 
loop_ 
_atom_site_label 
_atom_site_type_symbol 
_atom_site_fract_x 
_atom_site_fract_y 
_atom_site_fract_z 
_atom_site_charge 
C1          C  0.10412120  0.50400196  0.53101040     0.02900
C2          C  0.12367933  0.49807843  0.53528763    -0.13200
C3          C  0.13043360  0.47992725  0.53037945     0.00400
C4          C  0.11762660  0.46791338  0.52107645    -0.11700
C5          C  0.09813731  0.47345964  0.51666650     0.02900
C6          C  0.09154161  0.49158213  0.52166315    -0.11200
H7          H  0.13365188  0.50756102  0.54243161     0.08500
H8          H  0.12343385  0.45467227  0.51708053     0.06100
H9          H  0.07602893  0.49540622  0.51839787     0.05900
C10         C  0.91119528  0.56237863  0.44624065     0.02900
C11         C  0.89233798  0.56989325  0.44242787    -0.13200
C12         C  0.88636018  0.58769744  0.44799749     0.00400
C13         C  0.89887145  0.59742681  0.45753767    -0.11700
C14         C  0.91735309  0.58992977  0.46156816     0.02900
C15         C  0.92353536  0.57251510  0.45585478    -0.11200
H16         H  0.88309201  0.56276818  0.43497002     0.08500
H17         H  0.89427085  0.61112884  0.46184588     0.06100
H18         H  0.93755153  0.56642896  0.45900346     0.05900
Fe19       Fe  0.99246585  0.68500574  0.57141275     1.65800
Fe20       Fe  0.05733461  0.72603145  0.58085771     1.73200
Fe21       Fe  0.03227915  0.75053126  0.56204995     1.54400
O22         O  0.01613076  0.72487308  0.54942780    -0.81900
O23         O  0.06349457  0.76362241  0.58605162    -0.80200
O24         O  0.98978401  0.68284171  0.55571765    -0.84400
O25         O  0.96901529  0.70393516  0.57261122    -0.79200
O26         O  0.07109440  0.75932270  0.55712384    -0.81000
O27         O  0.03153557  0.70769655  0.59339396    -0.83700
C28         C  0.97274508  0.72775478  0.57059736     0.97000
C29         C  0.00029264  0.69919403  0.54821440     1.04500
O30         O  0.02743653  0.72059360  0.57143932    -1.12700
O31         O  0.05500425  0.68945311  0.57627599    -0.75200
O32         O  0.01258379  0.66266227  0.57028052    -0.78600
O33         O  0.99451820  0.74625977  0.56624394    -0.79300
C34         C  0.03677724  0.66729808  0.57210732     0.95900
O35         O  0.98971868  0.68152874  0.58708389    -0.77300
O36         O  0.08772597  0.74576789  0.56994883    -0.82500
C37         C  0.06087401  0.78278693  0.58193474     0.98600
C38         C  0.09058087  0.75757514  0.56135565     1.04500
O39         O  0.04977418  0.78024725  0.57322961    -0.78100
C40         C  0.00595199  0.69134572  0.59459932     1.02800
C41         C  0.24701962  0.23278059  0.11334350     0.02900
C42         C  0.22770795  0.23926537  0.10922613    -0.13200
C43         C  0.22114053  0.25719550  0.11438026     0.00400
C44         C  0.23368382  0.26829765  0.12379057    -0.11700
C45         C  0.25268570  0.26194952  0.12811422     0.02900
C46         C  0.25955093  0.24443433  0.12279971    -0.11200
H47         H  0.21829122  0.23095522  0.10188392     0.08500
H48         H  0.22844578  0.28190305  0.12783914     0.06100
H49         H  0.27392251  0.23917357  0.12620101     0.05900
C50         C  0.43855775  0.17396033  0.19749266     0.02900
C51         C  0.45901489  0.16874113  0.20137429    -0.13200
C52         C  0.46662355  0.15180526  0.19601244     0.00400
C53         C  0.45321839  0.13964464  0.18681223    -0.11700
C54         C  0.43244555  0.14402824  0.18289905     0.02900
C55         C  0.42543411  0.16141946  0.18821967    -0.11200
H56         H  0.46957811  0.17841432  0.20841462     0.08500
H57         H  0.45884849  0.12642324  0.18270251     0.06100
H58         H  0.40909619  0.16445322  0.18528673     0.05900
Fe59       Fe  0.35645250  0.05041425  0.07283308     1.65800
Fe60       Fe  0.31461984  0.98496810  0.08181829     1.73200
Fe61       Fe  0.29208178  0.01090500  0.06267479     1.54400
O62         O  0.29575199  0.04824994  0.06699985    -0.81900
O63         O  0.29682125  0.95542619  0.07063420    -0.80200
O64         O  0.33677793  0.07313720  0.07441483    -0.84400
O65         O  0.35972774  0.05579837  0.05722339    -0.79200
O66         O  0.26101445  0.99232953  0.07343225    -0.81000
O67         O  0.35189641  0.98810327  0.07778032    -0.83700
C68         C  0.34436907  0.04576206  0.04949439     0.97000
C69         C  0.31329224  0.06946949  0.07186187     1.04500
O70         O  0.32097633  0.01537106  0.07243899    -1.12700
O71         O  0.33091024  0.00987887  0.09458006    -0.75200
O72         O  0.35965664  0.05150305  0.08852806    -0.78600
O73         O  0.31891799  0.02841014  0.05035966    -0.79300
C74         C  0.34832976  0.03508164  0.09594591     0.95900
O75         O  0.37861893  0.03012530  0.07122994    -0.77300
O76         O  0.27623871  0.97785619  0.08645386    -0.82500
C77         C  0.28616629  0.95306574  0.06186413     0.98600
C78         C  0.25749365  0.98061705  0.08209107     1.04500
O79         O  0.28444561  0.97260286  0.05761360    -0.78100
C80         C  0.37386221  0.00593127  0.07331724     1.02800
Fe81       Fe  0.32431217  0.35329499  0.23854865     1.65800
Fe82       Fe  0.36584455  0.41896266  0.22967559     1.73200
Fe83       Fe  0.38899469  0.39248453  0.24844120     1.54400
O84         O  0.36253155  0.37594802  0.26085920    -0.81900
O85         O  0.40441568  0.42657154  0.22500528    -0.80200
O86         O  0.32145721  0.34836735  0.25418508    -0.84400
O87         O  0.34373230  0.33036650  0.23683014    -0.79200
O88         O  0.39775399  0.43117378  0.25341620    -0.81000
O89         O  0.34970954  0.39417278  0.21689871    -0.83700
C90         C  0.36711512  0.33372853  0.23932333     0.97000
C91         C  0.33703943  0.35891430  0.26183560     1.04500
O92         O  0.35978302  0.38834791  0.23889570    -1.12700
O93         O  0.32824015  0.41538263  0.23361525    -0.75200
O94         O  0.30191790  0.37330201  0.24014093    -0.78600
O95         O  0.38471759  0.35475490  0.24424676    -0.79300
C96         C  0.30617799  0.39724674  0.23793842     0.95900
O97         O  0.32112873  0.35235792  0.22288181    -0.77300
O98         O  0.38353723  0.44828703  0.24095921    -0.82500
C99         C  0.42289698  0.42270227  0.22899573     0.98600
C100        C  0.39546861  0.45069398  0.24946114     1.04500
O101        O  0.41941162  0.41012863  0.23745498    -0.78100
C102        C  0.33242487  0.36893647  0.21550350     1.02800
C103        C  0.20271676  0.27159430  0.36475848     0.02900
C104        C  0.21196094  0.28263463  0.35487773    -0.13200
C105        C  0.22854572  0.27543013  0.34913140     0.00400
C106        C  0.23614642  0.25720929  0.35334581    -0.11700
C107        C  0.22764849  0.24620237  0.36321121     0.02900
C108        C  0.21063006  0.25322255  0.36884415    -0.11200
H109        H  0.20572686  0.29634182  0.35151457     0.08500
H110        H  0.24901509  0.25172008  0.34891431     0.06100
H111        H  0.20431857  0.24508159  0.37651586     0.05900
C112        C  0.15018849  0.46938301  0.28144005     0.02900
C113        C  0.13819229  0.45525795  0.29064874    -0.13200
C114        C  0.12011754  0.46080227  0.29622896     0.00400
C115        C  0.11464553  0.48124345  0.29268106    -0.11700
C116        C  0.12657202  0.49591713  0.28360218     0.02900
C117        C  0.14422201  0.48970329  0.27798734    -0.11200
H118        H  0.14198110  0.43909584  0.29326360     0.08500
H119        H  0.10065754  0.48547344  0.29696937     0.06100
H120        H  0.15369403  0.50101202  0.27101320     0.05900
Fe121      Fe  0.02218143  0.38278955  0.40570351     1.65800
Fe122      Fe  0.95719775  0.34253206  0.39621551     1.73200
Fe123      Fe  0.98145421  0.31741740  0.41507743     1.54400
O124        O  0.01892962  0.32108117  0.41102944    -0.81900
O125        O  0.92722130  0.32524813  0.40736552    -0.80200
O126        O  0.04489531  0.36306971  0.40441543    -0.84400
O127        O  0.02546408  0.38479513  0.42140263    -0.79200
O128        O  0.96388914  0.28758993  0.40394805    -0.81000
O129        O  0.96133777  0.38028754  0.39999900    -0.83700
C130        C  0.01487957  0.36841630  0.42889750     0.97000
C131        C  0.04080834  0.33921045  0.40663111     1.04500
O132        O  0.98686013  0.34753120  0.40568467    -1.12700
O133        O  0.98311050  0.35853034  0.38366634    -0.75200
O134        O  0.02457565  0.38637109  0.39000639    -0.78600
O135        O  0.99801766  0.34296041  0.42767575    -0.79300
C136        C  0.00856558  0.37539055  0.38248789     0.95900
O137        O  0.00277908  0.40581153  0.40694285    -0.77300
O138        O  0.94878094  0.30387478  0.39151143    -0.82500
C139        C  0.92403999  0.31284257  0.41584390     0.98600
C140        C  0.95187643  0.28485032  0.39544356     1.04500
O141        O  0.94282761  0.30946542  0.41984265    -0.78100
C142        C  0.97928445  0.40207579  0.40442373     1.02800
C143        C  0.52942155  0.93111424  0.03045484     0.02900
C144        C  0.53468820  0.91075869  0.03442491    -0.13200
C145        C  0.55089445  0.90248592  0.02892910     0.00400
C146        C  0.56214112  0.91503240  0.01946873    -0.11700
C147        C  0.55750192  0.93553744  0.01540511     0.02900
C148        C  0.54116050  0.94351418  0.02095430    -0.11200
H149        H  0.52557478  0.90079169  0.04164547     0.08500
H150        H  0.57533701  0.90934839  0.01536427     0.06100
H151        H  0.53757689  0.95938762  0.01785831     0.05900
C152        C  0.48106430  0.13361469  0.94664725     0.02900
C153        C  0.47029594  0.12199290  0.95634656    -0.13200
C154        C  0.45214528  0.12825634  0.96154515     0.00400
C155        C  0.44515528  0.14661392  0.95699368    -0.11700
C156        C  0.45546196  0.15834285  0.94735722     0.02900
C157        C  0.47357612  0.15193126  0.94224236    -0.11200
H158        H  0.47530061  0.10735064  0.95969871     0.08500
H159        H  0.43193058  0.15229012  0.96107769     0.06100
H160        H  0.48170751  0.16110554  0.93482261     0.05900
Fe161      Fe  0.65888464  0.01857032  0.90584032     1.65800
Fe162      Fe  0.69930275  0.08360115  0.89613696     1.73200
Fe163      Fe  0.72367076  0.05961757  0.91535307     1.54400
O164        O  0.69768437  0.04176690  0.92790202    -0.81900
O165        O  0.73740294  0.09072806  0.89110721    -0.80200
O166        O  0.65610141  0.01521638  0.92149889    -0.84400
O167        O  0.67888999  0.99602536  0.90477392    -0.79200
O168        O  0.73006383  0.09746287  0.92034492    -0.81000
O169        O  0.68164438  0.05752790  0.88363393    -0.83700
C170        C  0.70297940  0.00056372  0.90680301     0.97000
C171        C  0.67211393  0.02525616  0.92905450     1.04500
O172        O  0.69401768  0.05397793  0.90576727    -1.12700
O173        O  0.66224338  0.08042142  0.90052903    -0.75200
O174        O  0.63597014  0.03815996  0.90692913    -0.78600
O175        O  0.72107979  0.02272543  0.91102185    -0.79300
C176        C  0.64026794  0.06219230  0.90486332     0.95900
O177        O  0.65553820  0.01585619  0.89019961    -0.77300
O178        O  0.71828308  0.11421580  0.90700673    -0.82500
C179        C  0.75699868  0.08977577  0.89561942     0.98600
C180        C  0.72878977  0.11695698  0.91584889     1.04500
O181        O  0.75423491  0.07905710  0.90444439    -0.78100
C182        C  0.66523049  0.03188502  0.88258404     1.02800
C183        C  0.86323080  0.59929617  0.69598126     0.02900
C184        C  0.86737330  0.57819241  0.69994942    -0.13200
C185        C  0.88283390  0.56896816  0.69447969     0.00400
C186        C  0.89431372  0.58114554  0.68499921    -0.11700
C187        C  0.89079093  0.60234390  0.68092831     0.02900
C188        C  0.87525672  0.61134389  0.68646510    -0.11200
H189        H  0.85870221  0.56900156  0.70730901     0.08500
H190        H  0.90696550  0.57472859  0.68090914     0.06100
H191        H  0.87199858  0.62728133  0.68321880     0.05900
C192        C  0.81119266  0.79571239  0.61308066     0.02900
C193        C  0.79831284  0.78229197  0.62231099    -0.13200
C194        C  0.78167450  0.78999790  0.62781039     0.00400
C195        C  0.77833921  0.81161880  0.62407202    -0.11700
C196        C  0.79085345  0.82527626  0.61491708     0.02900
C197        C  0.80711559  0.81710821  0.60940837    -0.11200
H198        H  0.80124737  0.76584204  0.62523174     0.08500
H199        H  0.76578035  0.81785642  0.62831299     0.06100
H200        H  0.81661778  0.82745863  0.60228501     0.05900
C201        C  0.57021588  0.89038656  0.78134210     0.02900
C202        C  0.58141441  0.90094691  0.79107478    -0.13200
C203        C  0.57344533  0.91741244  0.79654283     0.00400
C204        C  0.55428093  0.92347666  0.79217164    -0.11700
C205        C  0.54312258  0.91355666  0.78246255     0.02900
C206        C  0.55094670  0.89680857  0.77713096    -0.11200
H207        H  0.59592806  0.89594735  0.79451533     0.08500
H208        H  0.54827259  0.93637425  0.79630742     0.06100
H209        H  0.54274455  0.88963646  0.76954438     0.05900
C210        C  0.77355182  0.84186788  0.86429479     0.02900
C211        C  0.76236574  0.83260101  0.85445040    -0.13200
C212        C  0.76996829  0.81648830  0.84856692     0.00400
C213        C  0.78869759  0.80939356  0.85265225    -0.11700
C214        C  0.79997082  0.81810261  0.86243251     0.02900
C215        C  0.79254240  0.83458724  0.86817775    -0.11200
H216        H  0.74821597  0.83842527  0.85124176     0.08500
H217        H  0.79440277  0.79673461  0.84820089     0.06100
H218        H  0.80083688  0.84090526  0.87580924     0.05900
Fe219      Fe  0.68938515  0.71823033  0.73858439     1.65800
Fe220      Fe  0.65011586  0.65311352  0.74846314     1.73200
Fe221      Fe  0.62424751  0.67668278  0.72961500     1.54400
O222        O  0.62733123  0.71396169  0.73360191    -0.81900
O223        O  0.63168857  0.62242888  0.73758273    -0.80200
O224        O  0.66918350  0.74043386  0.74010819    -0.84400
O225        O  0.69091098  0.72161628  0.72288899    -0.79200
O226        O  0.59489546  0.65878501  0.74086785    -0.81000
O227        O  0.68761462  0.65719194  0.74400045    -0.83700
C228        C  0.67454864  0.71030966  0.71549926     0.97000
C229        C  0.64516695  0.73591444  0.73799105     1.04500
O230        O  0.65450600  0.68259196  0.73890099    -1.12700
O231        O  0.66730917  0.67943660  0.76090651    -0.75200
O232        O  0.69370262  0.72093463  0.75421491    -0.78600
O233        O  0.64930465  0.69305807  0.71688116    -0.79300
C234        C  0.68376903  0.70509348  0.76187589     0.95900
O235        O  0.71245289  0.69894895  0.73701384    -0.77300
O236        O  0.61166483  0.64496823  0.75359166    -0.82500
C237        C  0.61970350  0.61937530  0.72903343     0.98600
C238        C  0.59234240  0.64729335  0.74949778     1.04500
O239        O  0.61690402  0.63839090  0.72491082    -0.78100
C240        C  0.70890815  0.67529459  0.73926436     1.02800
C241        C  0.29987040  0.47083105  0.78115071     0.02900
C242        C  0.32544386  0.49041793  0.77692495    -0.13200
C243        C  0.35008526  0.49793477  0.78214471     0.00400
C244        C  0.34904904  0.48543541  0.79156671    -0.11700
C245        C  0.32393674  0.46600153  0.79594916     0.02900
C246        C  0.29940930  0.45866623  0.79067787    -0.11200
H247        H  0.32618201  0.50043289  0.76972824     0.08500
H248        H  0.36807740  0.49052242  0.79543621     0.06100
H249        H  0.27998367  0.44349267  0.79400744     0.05900
C250        C  0.04935954  0.26305866  0.86190533     0.02900
C251        C  0.02381609  0.24335696  0.86614044    -0.13200
C252        C  0.99915073  0.23508289  0.86079222     0.00400
C253        C  0.00017807  0.24677991  0.85118332    -0.11700
C254        C  0.02521858  0.26669582  0.84688987     0.02900
C255        C  0.04972400  0.27472826  0.85228048    -0.11200
H256        H  0.02309390  0.23403493  0.87349762     0.08500
H257        H  0.98115933  0.24117770  0.84720504     0.06100
H258        H  0.06904236  0.29032504  0.84901253     0.05900
Fe259      Fe  0.00864372  0.35493979  0.73883113     1.65800
Fe260      Fe  0.03249701  0.42005940  0.72944026     1.73200
Fe261      Fe  0.98269097  0.39428366  0.74815251     1.54400
O262        O  0.94957555  0.35631294  0.74400717    -0.81900
O263        O  0.04427026  0.44971275  0.74064991    -0.80200
O264        O  0.96652184  0.33198396  0.73669521    -0.84400
O265        O  0.00496464  0.34985961  0.75443077    -0.79200
O266        O  0.97022881  0.41156557  0.73698603    -0.81000
O267        O  0.06641582  0.41655439  0.73363274    -0.83700
C268        C  0.99957616  0.36047622  0.76196879     0.97000
C269        C  0.94638770  0.33522793  0.73915987     1.04500
O270        O  0.00795000  0.38985332  0.73880736    -1.12700
O271        O  0.02381272  0.39465542  0.71677629    -0.75200
O272        O  0.01252978  0.35376951  0.72324553    -0.78600
O273        O  0.99190891  0.37807345  0.76082118    -0.79300
C274        C  0.01714362  0.36960925  0.71567094     0.95900
O275        O  0.05076172  0.37533070  0.74096086    -0.77300
O276        O  0.00165144  0.42770604  0.72454988    -0.82500
C277        C  0.03477638  0.45226965  0.74914594     0.98600
C278        C  0.97929222  0.42393192  0.72850372     1.04500
O279        O  0.01261127  0.43308195  0.75301582    -0.78100
C280        C  0.07032823  0.39909824  0.73852075     1.02800
Fe281      Fe  0.34151394  0.38452256  0.90519612     1.65800
Fe282      Fe  0.36601750  0.34377860  0.89600761     1.73200
Fe283      Fe  0.31586207  0.31910882  0.91455853     1.54400
O284        O  0.32399464  0.34444073  0.92713927    -0.81900
O285        O  0.33528653  0.30585583  0.89082943    -0.80200
O286        O  0.33823824  0.38609347  0.92078500    -0.84400
O287        O  0.29935299  0.36504288  0.90309407    -0.79200
O288        O  0.34603004  0.31102630  0.91978380    -0.81000
O289        O  0.35833615  0.36126569  0.88335919    -0.83700
C290        C  0.27936793  0.34125440  0.90526311     0.97000
C291        C  0.33228043  0.36982664  0.92830223     1.04500
O292        O  0.34113392  0.34906485  0.90525478    -1.12700
O293        O  0.39976250  0.38080250  0.90052056    -0.75200
O294        O  0.38361962  0.40648544  0.90727303    -0.78600
O295        O  0.28261717  0.32320789  0.91001392    -0.79300
C296        C  0.40334331  0.40226513  0.90518541     0.95900
O297        O  0.34507666  0.38944999  0.88961430    -0.77300
O298        O  0.37678875  0.32485058  0.90713524    -0.82500
C299        C  0.31348527  0.28665897  0.89489173     0.98600
C300        C  0.36762432  0.31318011  0.91572704     1.04500
O301        O  0.30451634  0.28931087  0.90348589    -0.78100
C302        C  0.35076453  0.37890994  0.88214088     1.02800
C303        C  0.38173406  0.50690505  0.03021678     0.02900
C304        C  0.35654728  0.50276306  0.03420521    -0.13200
C305        C  0.33176111  0.48667747  0.02890437     0.00400
C306        C  0.33229035  0.47449046  0.01962186    -0.11700
C307        C  0.35698906  0.47842539  0.01544514     0.02900
C308        C  0.38161203  0.49439213  0.02083794    -0.11200
H309        H  0.35626518  0.51268676  0.04127055     0.08500
H310        H  0.31315119  0.46134017  0.01568467     0.06100
H311        H  0.40069471  0.49726231  0.01766795     0.05900
C312        C  0.63341745  0.56538220  0.94620591     0.02900
C313        C  0.65915616  0.57305006  0.94174946    -0.13200
C314        C  0.68375330  0.59152476  0.94674864     0.00400
C315        C  0.68228181  0.60252650  0.95621656    -0.11700
C316        C  0.65691153  0.59527229  0.96076828     0.02900
C317        C  0.63254224  0.57645268  0.95577858    -0.11200
H318        H  0.66002443  0.56449364  0.93442333     0.08500
H319        H  0.70104738  0.61620249  0.96026886     0.06100
H320        H  0.61290612  0.57102791  0.95921894     0.05900
Fe321      Fe  0.67417825  0.68487698  0.07207456     1.65800
Fe322      Fe  0.64855385  0.72476205  0.08117184     1.73200
Fe323      Fe  0.69911158  0.75027866  0.06274706     1.54400
O324        O  0.73261260  0.74617339  0.06705228    -0.81900
O325        O  0.63631413  0.74184217  0.06978726    -0.80200
O326        O  0.71615763  0.70464940  0.07420451    -0.84400
O327        O  0.67821565  0.68365246  0.05645068    -0.79200
O328        O  0.71074152  0.77993086  0.07391914    -0.81000
O329        O  0.61534836  0.68679527  0.07708015    -0.83700
C330        C  0.68348445  0.69982675  0.04892586     0.97000
C331        C  0.73604963  0.72823604  0.07180643     1.04500
O332        O  0.67397494  0.72008014  0.07199802    -1.12700
O333        O  0.65782295  0.70880142  0.09395922    -0.75200
O334        O  0.67045418  0.68003271  0.08775899    -0.78600
O335        O  0.69054934  0.72495198  0.05010132    -0.79300
C336        C  0.66541680  0.69115182  0.09524293     0.95900
O337        O  0.63216114  0.66231057  0.06984071    -0.77300
O338        O  0.67829104  0.76373802  0.08598798    -0.82500
C339        C  0.64618157  0.75465774  0.06142613     0.98600
C340        C  0.70068706  0.78281706  0.08221852     1.04500
O341        O  0.66884064  0.75856219  0.05772797    -0.78100
C342        C  0.61210959  0.66573741  0.07221029     1.02800
C343        C  0.71667846  0.17361586  0.69739866     0.02900
C344        C  0.71777283  0.16146233  0.68809112    -0.13200
C345        C  0.69352105  0.14308045  0.68289998     0.00400
C346        C  0.66810589  0.13722258  0.68702490    -0.11700
C347        C  0.66641240  0.14900813  0.69624389     0.02900
C348        C  0.69079186  0.16732020  0.70138698    -0.11200
H349        H  0.73743468  0.16565396  0.68503685     0.08500
H350        H  0.64939273  0.12377723  0.68289534     0.06100
H351        H  0.68957899  0.17654796  0.70850184     0.05900
C352        C  0.96774873  0.22582875  0.61491783     0.02900
C353        C  0.96698098  0.23710052  0.62447601    -0.13200
C354        C  0.99121915  0.25294678  0.63012156     0.00400
C355        C  0.01638192  0.25756033  0.62610107    -0.11700
C356        C  0.01772474  0.24683436  0.61656402     0.02900
C357        C  0.99333776  0.23106530  0.61101945    -0.11200
H358        H  0.94747895  0.23300097  0.62766415     0.08500
H359        H  0.03519965  0.27043329  0.63026405     0.06100
H360        H  0.99434191  0.22290356  0.60362732     0.05900
C361        C  0.38452265  0.94213213  0.53149828     0.02900
C362        C  0.38516562  0.95420838  0.52191093    -0.13200
C363        C  0.36071559  0.94752041  0.51667411     0.00400
C364        C  0.33547211  0.92831259  0.52105967    -0.11700
C365        C  0.33413980  0.91588993  0.53054542     0.02900
C366        C  0.35876269  0.92272919  0.53570159    -0.11200
H367        H  0.40468958  0.96889467  0.51851434     0.08500
H368        H  0.31660401  0.92246837  0.51693089     0.06100
H369        H  0.35775729  0.91357640  0.54312168     0.05900
C370        C  0.63235599  0.13000763  0.44723521     0.02900
C371        C  0.63220295  0.11705379  0.45652251    -0.13200
C372        C  0.65689162  0.12363932  0.46152307     0.00400
C373        C  0.68188141  0.14352759  0.45717131    -0.11700
C374        C  0.68269513  0.15643378  0.44784754     0.02900
C375        C  0.65779485  0.14973144  0.44296099    -0.11200
H376        H  0.61289671  0.10122732  0.45971597     0.08500
H377        H  0.70090057  0.14941155  0.46118764     0.06100
H378        H  0.65824666  0.15977098  0.43580648     0.05900
Fe379      Fe  0.67780054  0.05108237  0.57201786     1.65800
Fe380      Fe  0.65178331  0.98580385  0.58165133     1.73200
Fe381      Fe  0.70154935  0.00949090  0.56297478     1.54400
O382        O  0.69260137  0.02574459  0.55026443    -0.81900
O383        O  0.68198500  0.97758209  0.58681323    -0.80200
O384        O  0.68045314  0.05500250  0.55635594    -0.84400
O385        O  0.72004979  0.07308570  0.57374997    -0.79200
O386        O  0.67083621  0.97088957  0.55823770    -0.81000
O387        O  0.66046711  0.01166288  0.59410837    -0.83700
C388        C  0.73960416  0.06875824  0.57149946     0.97000
C389        C  0.68515471  0.04346978  0.54894255     1.04500
O390        O  0.67705202  0.01538676  0.57222152    -1.12700
O391        O  0.61853759  0.99006451  0.57712499    -0.75200
O392        O  0.63550992  0.03197077  0.57025917    -0.78600
O393        O  0.73560288  0.04699474  0.56695794    -0.79300
C394        C  0.61537990  0.00830317  0.57246894     0.95900
O395        O  0.67543469  0.05337257  0.58765158    -0.77300
O396        O  0.63978940  0.95544105  0.57078789    -0.82500
C397        C  0.70387724  0.98008924  0.58287294     0.98600
C398        C  0.64887084  0.95205828  0.56234735     1.04500
O399        O  0.71319618  0.99178012  0.57429182    -0.78100
C400        C  0.66926131  0.03717517  0.59521290     1.02800
Fe401      Fe  0.34157545  0.01824548  0.40473407     1.65800
Fe402      Fe  0.36756807  0.08375889  0.39531814     1.73200
Fe403      Fe  0.31823411  0.05983161  0.41415003     1.54400
O404        O  0.28393214  0.02322770  0.40966181    -0.81900
O405        O  0.37951543  0.11390125  0.40635562    -0.80200
O406        O  0.29919259  0.99647613  0.40322565    -0.84400
O407        O  0.33995585  0.01429991  0.42041374    -0.79200
O408        O  0.30777247  0.07957473  0.40317101    -0.81000
O409        O  0.40068927  0.07947843  0.39981809    -0.83700
C410        C  0.33427675  0.02477096  0.42792467     0.97000
C411        C  0.27980482  0.00129113  0.40522346     1.04500
O412        O  0.34243780  0.05399626  0.40472398    -1.12700
O413        O  0.35886772  0.05806047  0.38273356    -0.75200
O414        O  0.34325111  0.01613241  0.38907399    -0.78600
O415        O  0.32577254  0.04171922  0.42670695    -0.79300
C416        C  0.34964713  0.03246900  0.38154676     0.95900
O417        O  0.38383991  0.03711544  0.40623857    -0.77300
O418        O  0.33750765  0.09212963  0.39020620    -0.82500
C419        C  0.37122797  0.11661152  0.41509495     0.98600
C420        C  0.31658326  0.09092531  0.39449430     1.04500
O421        O  0.34967169  0.09744181  0.41930996    -0.78100
C422        C  0.40384573  0.06103678  0.40428875     1.02800
C423        C  0.04817109  0.84766603  0.36318604     0.02900
C424        C  0.04822077  0.83682670  0.35344724    -0.13200
C425        C  0.02348069  0.81993268  0.34823456     0.00400
C426        C  0.99854491  0.81387340  0.35288402    -0.11700
C427        C  0.99786957  0.82438364  0.36254306     0.02900
C428        C  0.02276834  0.84144817  0.36762491    -0.11200
H429        H  0.06755260  0.84196639  0.34981687     0.08500
H430        H  0.97938535  0.80064264  0.34898147     0.06100
H431        H  0.02224315  0.84904496  0.37519025     0.05900
C432        C  0.29888124  0.89251383  0.27996416     0.02900
C433        C  0.32445161  0.89894769  0.27563392    -0.13200
C434        C  0.34924127  0.91757397  0.28048918     0.00400
C435        C  0.34817847  0.92937133  0.28981943    -0.11700
C436        C  0.32303787  0.92324298  0.29428608     0.02900
C437        C  0.29845215  0.90463730  0.28935929    -0.11200
H438        H  0.32508899  0.89022473  0.26831559     0.08500
H439        H  0.36711485  0.94307654  0.29377011     0.06100
H440        H  0.27899039  0.89981496  0.29280162     0.05900
C441        C  0.96602395  0.79748571  0.11322911     0.02900
C442        C  0.99142166  0.81753304  0.10903355    -0.13200
C443        C  0.01617880  0.82543278  0.11423355     0.00400
C444        C  0.01532489  0.81353667  0.12379604    -0.11700
C445        C  0.99030589  0.79386332  0.12821451     0.02900
C446        C  0.96574597  0.78575859  0.12283288    -0.11200
H447        H  0.99204815  0.82637748  0.10157826     0.08500
H448        H  0.03437746  0.81964511  0.12782686     0.06100
H449        H  0.94633875  0.77089573  0.12626398     0.05900
C450        C  0.71435683  0.59915952  0.19703355     0.02900
C451        C  0.68897656  0.57827037  0.20095084    -0.13200
C452        C  0.66437808  0.56970847  0.19551845     0.00400
C453        C  0.66533274  0.58252567  0.18615371    -0.11700
C454        C  0.69024521  0.60348561  0.18211056     0.02900
C455        C  0.71469583  0.61175790  0.18761085    -0.11200
H456        H  0.68844025  0.56811607  0.20809138     0.08500
H457        H  0.64637216  0.57664248  0.18209137     0.06100
H458        H  0.73398313  0.62795421  0.18453647     0.05900
Fe459      Fe  0.00632037  0.71650471  0.23899166     1.65800
Fe460      Fe  0.98191467  0.65206438  0.24922774     1.73200
Fe461      Fe  0.03012513  0.67493334  0.22998402     1.54400
O462        O  0.02200711  0.69206650  0.21723190    -0.81900
O463        O  0.01294058  0.64506815  0.25440220    -0.80200
O464        O  0.00735841  0.71930238  0.22330445    -0.84400
O465        O  0.04884131  0.73896018  0.24021434    -0.79200
O466        O  0.99872753  0.63688262  0.22526447    -0.81000
O467        O  0.99051225  0.67874019  0.26147884    -0.83700
C468        C  0.06830438  0.73418445  0.23827555     0.97000
C469        C  0.01329049  0.70880178  0.21587885     1.04500
O470        O  0.00612566  0.68112002  0.23940666    -1.12700
O471        O  0.94795750  0.65511879  0.24475659    -0.75200
O472        O  0.96382072  0.69675431  0.23776227    -0.78600
O473        O  0.06422527  0.71198082  0.23408802    -0.79300
C474        C  0.94411676  0.67294021  0.24011389     0.95900
O475        O  0.00524317  0.71994645  0.25459840    -0.77300
O476        O  0.97009936  0.62101260  0.23859988    -0.82500
C477        C  0.03360588  0.64595172  0.24999953     0.98600
C478        C  0.97785154  0.61777807  0.22983299     1.04500
O479        O  0.04150409  0.65622158  0.24111394    -0.78100
C480        C  0.99925087  0.70432940  0.26232589     1.02800
C481        C  0.14804686  0.74334999  0.78080571     0.02900
C482        C  0.13432677  0.74402861  0.78976654    -0.13200
C483        C  0.11635637  0.71967910  0.79506726     0.00400
C484        C  0.11257987  0.69450057  0.79144907    -0.11700
C485        C  0.12622627  0.69316681  0.78264939     0.02900
C486        C  0.14381674  0.71770127  0.77732667    -0.11200
H487        H  0.13750308  0.76352140  0.79261665     0.08500
H488        H  0.09879978  0.67572403  0.79552269     0.06100
H489        H  0.15407768  0.71677315  0.77044458     0.05900
C490        C  0.20226613  0.99549300  0.86336407     0.02900
C491        C  0.20925412  0.02133200  0.86754579    -0.13200
C492        C  0.22874099  0.04588121  0.86271040     0.00400
C493        C  0.24116895  0.04441411  0.85359406    -0.11700
C494        C  0.23453287  0.01900330  0.84924149     0.02900
C495        C  0.21489279  0.99460829  0.85413600    -0.11200
H496        H  0.19960308  0.02236415  0.87458769     0.08500
H497        H  0.25556546  0.06326035  0.84968833     0.06100
H498        H  0.21012923  0.97491943  0.85093214     0.05900
Fe499      Fe  0.32674685  0.03615761  0.73852780     1.65800
Fe500      Fe  0.39196446  0.05975181  0.74755832     1.73200
Fe501      Fe  0.36605264  0.01054279  0.72874055     1.54400
O502        O  0.32860458  0.97713919  0.73314317    -0.81900
O503        O  0.42159648  0.07099799  0.73636727    -0.80200
O504        O  0.30353436  0.99365395  0.74012242    -0.84400
O505        O  0.32242416  0.03467672  0.72286907    -0.79200
O506        O  0.38403412  0.99807914  0.73966990    -0.81000
O507        O  0.38914475  0.09405887  0.74341416    -0.83700
C508        C  0.33242394  0.02871621  0.71527021     0.97000
C509        C  0.30723086  0.97367093  0.73785113     1.04500
O510        O  0.36166290  0.03550616  0.73826231    -1.12700
O511        O  0.36687350  0.05146211  0.76027995    -0.75200
O512        O  0.32513410  0.03767912  0.75423616    -0.78600
O513        O  0.34901079  0.01972951  0.71631631    -0.79300
C514        C  0.34153456  0.04305430  0.76164741     0.95900
O515        O  0.34718698  0.07870241  0.73695827    -0.77300
O516        O  0.39876893  0.02845639  0.75240560    -0.82500
C517        C  0.42407434  0.06216059  0.72772664     0.98600
C518        C  0.39568552  0.00659696  0.74827312     1.04500
O519        O  0.40454659  0.04078052  0.72361065    -0.78100
C520        C  0.37128462  0.09819489  0.73901661     1.02800
C521        C  0.77576773  0.99347193  0.36390429     0.02900
C522        C  0.79578366  0.01919187  0.36784296    -0.13200
C523        C  0.80212271  0.04375598  0.36271710     0.00400
C524        C  0.78901445  0.04250293  0.35344399    -0.11700
C525        C  0.76945792  0.01722514  0.34926555     0.02900
C526        C  0.76266070  0.99281227  0.35459654    -0.11200
H527        H  0.80620349  0.02021031  0.37494484     0.08500
H528        H  0.79398132  0.06145262  0.34947874     0.06100
H529        H  0.74708010  0.97332466  0.35148569     0.05900
C530        C  0.58360381  0.74202623  0.27936364     0.02900
C531        C  0.59753636  0.74287129  0.28847472    -0.13200
C532        C  0.59240040  0.71843747  0.29345883     0.00400
C533        C  0.57308985  0.69305071  0.28923038    -0.11700
C534        C  0.55877257  0.69166780  0.28023944     0.02900
C535        C  0.56401603  0.71624179  0.27538070    -0.11200
H536        H  0.61239859  0.76253735  0.29168889     0.08500
H537        H  0.56843537  0.67416138  0.29316808     0.06100
H538        H  0.55343109  0.71522832  0.26831953     0.05900
C539        C  0.10447024  0.66074274  0.03153196     0.02900
C540        C  0.09223923  0.66034654  0.02204533    -0.13200
C541        C  0.09838577  0.68497706  0.01700890     0.00400
C542        C  0.11714199  0.71015623  0.02148560    -0.11700
C543        C  0.12987599  0.71118512  0.03084864     0.02900
C544        C  0.12350671  0.68637820  0.03582374    -0.11200
H545        H  0.07788815  0.64087669  0.01856365     0.08500
H546        H  0.12251552  0.72915166  0.01747267     0.06100
H547        H  0.13282943  0.68710099  0.04315972     0.05900
C548        C  0.90511997  0.40866641  0.94858067     0.02900
C549        C  0.88422399  0.38316600  0.94477445    -0.13200
C550        C  0.87632338  0.35845842  0.95015770     0.00400
C551        C  0.88978531  0.35950880  0.95934208    -0.11700
C552        C  0.91055633  0.38454903  0.96326619     0.02900
C553        C  0.91784490  0.40906031  0.95794184    -0.11200
H554        H  0.87432917  0.38247993  0.93757368     0.08500
H555        H  0.88432418  0.34061314  0.96343322     0.06100
H556        H  0.93376420  0.42840266  0.96103360     0.05900
C557        C  0.81603125  0.07482055  0.11437140     0.02900
C558        C  0.80926219  0.04887191  0.11030168    -0.13200
C559        C  0.79215643  0.02448252  0.11575972     0.00400
C560        C  0.78220458  0.02617565  0.12541845    -0.11700
C561        C  0.78888688  0.05165688  0.12969282     0.02900
C562        C  0.80574342  0.07586038  0.12412814    -0.11200
H563        H  0.81639489  0.04748106  0.10274083     0.08500
H564        H  0.76896139  0.00742375  0.12961921     0.06100
H565        H  0.81128988  0.09554518  0.12752975     0.05900
C566        C  0.86564552  0.32674047  0.19754738     0.02900
C567        C  0.87778591  0.32599848  0.18818097    -0.13200
C568        C  0.89613704  0.35046232  0.18301189     0.00400
C569        C  0.90190354  0.37578503  0.18722803    -0.11700
C570        C  0.89001163  0.37706735  0.19651202     0.02900
C571        C  0.87175030  0.35245418  0.20159655    -0.11200
H572        H  0.87382365  0.30642638  0.18511170     0.08500
H573        H  0.91546363  0.39468912  0.18317259     0.06100
H574        H  0.86256742  0.35336236  0.20877574     0.05900
Fe575      Fe  0.99260520  0.36763857  0.07279411     1.65800
Fe576      Fe  0.05758243  0.39196600  0.08221392     1.73200
Fe577      Fe  0.03309530  0.34307417  0.06333283     1.54400
O578        O  0.99641794  0.30919363  0.06793323    -0.81900
O579        O  0.08799215  0.40237427  0.07135409    -0.80200
O580        O  0.96961945  0.32497897  0.07387084    -0.84400
O581        O  0.98950527  0.36722618  0.05715337    -0.79200
O582        O  0.05255380  0.33226352  0.07427693    -0.81000
O583        O  0.05523782  0.42604259  0.07743585    -0.83700
C584        C  0.99890089  0.36028696  0.04964894     0.97000
C585        C  0.97415094  0.30531089  0.07200630     1.04500
O586        O  0.02778175  0.36754051  0.07278167    -1.12700
O587        O  0.03187030  0.38475259  0.09472094    -0.75200
O588        O  0.98987563  0.36805308  0.08845876    -0.78600
O589        O  0.01489074  0.35062005  0.05082905    -0.79300
C590        C  0.00623197  0.37500722  0.09595191     0.95900
O591        O  0.01257700  0.41026605  0.07162892    -0.77300
O592        O  0.06363491  0.36063693  0.08757801    -0.82500
C593        C  0.09050001  0.39456590  0.06250220     0.98600
C594        C  0.06273190  0.34005230  0.08314604     1.04500
O595        O  0.07077405  0.37414322  0.05803136    -0.78100
C596        C  0.03690677  0.42987671  0.07328187     1.02800
Fe597      Fe  0.69001434  0.03433763  0.23972256     1.65800
Fe598      Fe  0.62551262  0.00960481  0.22975950     1.73200
Fe599      Fe  0.64884817  0.05874375  0.24862495     1.54400
O600        O  0.66517465  0.05003899  0.26141529    -0.81900
O601        O  0.61682438  0.03977071  0.22484866    -0.80200
O602        O  0.69303228  0.03603787  0.25541403    -0.84400
O603        O  0.71250571  0.07670741  0.23816560    -0.79200
O604        O  0.61035945  0.02771931  0.25333341    -0.81000
O605        O  0.65201329  0.01961605  0.21734850    -0.83700
C606        C  0.70832720  0.09647451  0.24022366     0.97000
C607        C  0.68208538  0.04159130  0.26280874     1.04500
O608        O  0.65470881  0.03423083  0.23936777    -1.12700
O609        O  0.62968032  0.97592353  0.23378765    -0.75200
O610        O  0.67054542  0.99198826  0.24126098    -0.78600
O611        O  0.68638195  0.09275067  0.24456070    -0.79300
C612        C  0.64730194  0.97215168  0.23856614     0.95900
O613        O  0.69292593  0.03254866  0.22409309    -0.77300
O614        O  0.59515181  0.99677417  0.24076106    -0.82500
C615        C  0.61901137  0.06138635  0.22889179     0.98600
C616        C  0.59173447  0.00565836  0.24925181     1.04500
O617        O  0.63091572  0.07056388  0.23741541    -0.78100
C618        C  0.67742661  0.02763244  0.21641605     1.02800
Fe619      Fe  0.02429872  0.70217691  0.90552755     1.65800
Fe620      Fe  0.95862569  0.67645204  0.89661522     1.73200
Fe621      Fe  0.98364907  0.72666702  0.91502540     1.54400
O622        O  0.00134000  0.71863783  0.92757714    -0.81900
O623        O  0.95032374  0.70659486  0.89147707    -0.80200
O624        O  0.02891057  0.70470511  0.92118683    -0.84400
O625        O  0.04644085  0.74460375  0.90359892    -0.79200
O626        O  0.94551416  0.69599785  0.92032323    -0.81000
O627        O  0.98361369  0.68472476  0.88390636    -0.83700
C628        C  0.04219760  0.76432693  0.90570390     0.97000
C629        C  0.01849321  0.71037405  0.92873355     1.04500
O630        O  0.98879181  0.70176775  0.90572860    -1.12700
O631        O  0.96281668  0.64316585  0.90109672    -0.75200
O632        O  0.00506570  0.65975063  0.90743218    -0.78600
O633        O  0.02066945  0.76055314  0.91039733    -0.79300
C634        C  0.98113241  0.63977000  0.90551256     0.95900
O635        O  0.02569674  0.69969098  0.88982626    -0.77300
O636        O  0.92906255  0.66502193  0.90780410    -0.82500
C637        C  0.95253962  0.72825742  0.89548164     0.98600
C638        C  0.92627906  0.67418706  0.91631768     1.04500
O639        O  0.96457162  0.73764505  0.90397666    -0.78100
C640        C  0.00898182  0.69347344  0.88246693     1.02800
C641        C  0.48350624  0.40702490  0.44703094     0.02900
C642        C  0.47235480  0.40780687  0.45662516    -0.13200
C643        C  0.45695452  0.38368133  0.46244367     0.00400
C644        C  0.45294414  0.35858063  0.45862104    -0.11700
C645        C  0.46380195  0.35716852  0.44910970     0.02900
C646        C  0.47886730  0.38143708  0.44332183    -0.11200
H647        H  0.47619706  0.42730583  0.45971738     0.08500
H648        H  0.44044949  0.33980864  0.46291914     0.06100
H649        H  0.48692989  0.38031434  0.43591669     0.05900
C650        C  0.53650605  0.65934669  0.53217000     0.02900
C651        C  0.54777041  0.65786978  0.52268793    -0.13200
C652        C  0.56573787  0.68191343  0.51722061     0.00400
C653        C  0.57210637  0.70757038  0.52126986    -0.11700
C654        C  0.56115742  0.70965034  0.53066960     0.02900
C655        C  0.54327920  0.68541770  0.53606753    -0.11200
H656        H  0.54323089  0.63804076  0.51969812     0.08500
H657        H  0.58522523  0.72610225  0.51693963     0.06100
H658        H  0.53471960  0.68687935  0.54331767     0.05900
Fe659      Fe  0.65833489  0.69981080  0.40552209     1.65800
Fe660      Fe  0.70129910  0.67703200  0.39707441     1.73200
Fe661      Fe  0.72291457  0.72651612  0.41572428     1.54400
O662        O  0.71785777  0.75923625  0.41135843    -0.81900
O663        O  0.71970819  0.66639057  0.40849872    -0.80200
O664        O  0.67683260  0.74217059  0.40394013    -0.84400
O665        O  0.65474821  0.70115437  0.42123489    -0.79200
O666        O  0.75362719  0.73988375  0.40486482    -0.81000
O667        O  0.66428258  0.64239168  0.40114003    -0.83700
C668        C  0.67041700  0.70691128  0.42893168     0.97000
C669        C  0.70004721  0.76236567  0.40645380     1.04500
O670        O  0.69422166  0.70107540  0.40611520    -1.12700
O671        O  0.68456347  0.68459435  0.38414078    -0.75200
O672        O  0.65603370  0.69822338  0.38975175    -0.78600
O673        O  0.69606235  0.71616591  0.42799730    -0.79300
C674        C  0.66742849  0.69265125  0.38250292     0.95900
O675        O  0.63666835  0.65733637  0.40694229    -0.77300
O676        O  0.73937624  0.70888474  0.39233800    -0.82500
C677        C  0.73111193  0.67600920  0.41706371     0.98600
C678        C  0.75746753  0.73130922  0.39638318     1.04500
O679        O  0.73250383  0.69740645  0.42094888    -0.78100
C680        C  0.64169997  0.63801198  0.40510727     1.02800
C681        C  0.44473331  0.32857093  0.69614401     0.02900
C682        C  0.43221982  0.32711287  0.68663378    -0.13200
C683        C  0.43923585  0.35104931  0.68092388     0.00400
C684        C  0.45912708  0.37667313  0.68480924    -0.11700
C685        C  0.47198707  0.37871851  0.69423803     0.02900
C686        C  0.46461236  0.35456615  0.69988516    -0.11200
H687        H  0.41739170  0.30724149  0.68355660     0.08500
H688        H  0.46401513  0.39528837  0.68062979     0.06100
H689        H  0.47428070  0.35605434  0.70721841     0.05900
C690        C  0.23798525  0.07403361  0.61372920     0.02900
C691        C  0.25049673  0.07487797  0.62318839    -0.13200
C692        C  0.24335879  0.05053610  0.62863703     0.00400
C693        C  0.22367249  0.02523097  0.62450502    -0.11700
C694        C  0.21074452  0.02380686  0.61515781     0.02900
C695        C  0.21822353  0.04830012  0.60973900    -0.11200
H696        H  0.26572382  0.09449760  0.62633657     0.08500
H697        H  0.21870328  0.00637397  0.62852562     0.06100
H698        H  0.20802279  0.04739445  0.60258850     0.05900
Fe699      Fe  0.35593846  0.36638582  0.57187197     1.65800
Fe700      Fe  0.31536053  0.39079756  0.58129341     1.73200
Fe701      Fe  0.29163586  0.34310037  0.56192840     1.54400
O702        O  0.31814135  0.35258787  0.54957725    -0.81900
O703        O  0.27624743  0.36028293  0.58557867    -0.80200
O704        O  0.35914488  0.36571814  0.55622205    -0.84400
O705        O  0.33556172  0.32392879  0.57313733    -0.79200
O706        O  0.28500401  0.37465543  0.55718184    -0.81000
O707        O  0.33029415  0.37983167  0.59391050    -0.83700
C708        C  0.31174186  0.30448096  0.57077160     0.97000
C709        C  0.34357384  0.36090396  0.54858318     1.04500
O710        O  0.32091306  0.36679440  0.57168632    -1.12700
O711        O  0.35354488  0.42460693  0.57784540    -0.75200
O712        O  0.37909269  0.40882910  0.57073764    -0.78600
O713        O  0.29433838  0.30865259  0.56602011    -0.79300
C714        C  0.37538096  0.42855618  0.57336432     0.95900
O715        O  0.35875138  0.36702753  0.58753155    -0.77300
O716        O  0.29909416  0.40447759  0.57011600    -0.75300
C717        C  0.25731473  0.33892132  0.58125412     0.98600
C718        C  0.28794439  0.39638478  0.56140319     1.04500
O719        O  0.26068975  0.33053663  0.57266065    -0.78100
C720        C  0.34732926  0.37143636  0.59506032     1.02800
C721        C  0.24528586  0.10003367  0.60812288    -0.03500
C722        C  0.24852364  0.12329682  0.61342616    -0.09300
C723        C  0.25573709  0.14784142  0.60818434    -0.17000
C724        C  0.25991051  0.14960299  0.59756476     0.25200
C725        C  0.25657198  0.12651250  0.59221521    -0.18600
C726        C  0.24924864  0.10190373  0.59743921    -0.07500
C727        C  0.26809538  0.17520364  0.59220417    -0.14000
C728        C  0.27554029  0.19692771  0.58786576    -0.13700
C729        C  0.28518108  0.22341707  0.58298315     0.25100
C730        C  0.31148713  0.24530483  0.58516260    -0.19100
C731        C  0.32055494  0.27133629  0.58083572    -0.07600
C732        C  0.30339655  0.27601722  0.57425566    -0.03700
C733        C  0.27717867  0.25371066  0.57192792    -0.09000
C734        C  0.26817843  0.22763811  0.57625397    -0.16600
H735        H  0.24524736  0.12243501  0.62162237     0.11500
H736        H  0.25816989  0.16549346  0.61242953     0.10800
H737        H  0.25981858  0.12757737  0.58400991     0.10700
H738        H  0.24716832  0.08446972  0.59314795     0.11300
H739        H  0.32486501  0.24238422  0.59036376     0.11300
H740        H  0.34072065  0.28798404  0.58289931     0.11300
H741        H  0.26332973  0.25653762  0.56695989     0.11400
H742        H  0.24777635  0.21091209  0.57449203     0.10300
C743        C  0.42558393  0.34962871  0.67098852    -0.03500
C744        C  0.39711419  0.33186411  0.66973857    -0.09300
C745        C  0.38413754  0.33190227  0.66058018    -0.17000
C746        C  0.39942536  0.34963091  0.65256139     0.25200
C747        C  0.42781212  0.36692742  0.65366104    -0.18600
C748        C  0.44080384  0.36691387  0.66278409    -0.07500
C749        C  0.38621558  0.35056080  0.64322585    -0.14000
C750        C  0.37697439  0.35273061  0.63515680    -0.13700
C751        C  0.36839535  0.35648435  0.62516906     0.25100
C752        C  0.37899491  0.35064461  0.61645566    -0.19100
C753        C  0.37202163  0.35544858  0.60671209    -0.07600
C754        C  0.35428030  0.36625215  0.60549848    -0.03700
C755        C  0.34340641  0.37176032  0.61430787    -0.09000
C756        C  0.35048391  0.36694900  0.62408688    -0.16600
H757        H  0.38477963  0.31852251  0.67592822     0.11500
H758        H  0.36213709  0.31838328  0.65981063     0.10800
H759        H  0.43988538  0.38060039  0.64749245     0.10700
H760        H  0.46281624  0.38050845  0.66342648     0.11300
H761        H  0.39292663  0.34260644  0.61719009     0.11300
H762        H  0.38066744  0.35078243  0.60012994     0.11300
H763        H  0.32962478  0.37997599  0.61364940     0.11400
H764        H  0.34221833  0.37162534  0.63078503     0.10300
C765        C  0.57803221  0.68071180  0.50725566    -0.03500
C766        C  0.60580588  0.69967574  0.50508705    -0.09300
C767        C  0.61699145  0.70030774  0.49545121    -0.17000
C768        C  0.60067580  0.68199650  0.48780493     0.25200
C769        C  0.57319325  0.66250047  0.48996576    -0.18600
C770        C  0.56195004  0.66178147  0.49964031    -0.07500
C771        C  0.61200955  0.68411051  0.47767410    -0.14000
C772        C  0.62207258  0.68731482  0.46922891    -0.13700
C773        C  0.63427487  0.69214062  0.45913147     0.25100
C774        C  0.61766441  0.68530725  0.45041265    -0.19100
C775        C  0.62942651  0.69029579  0.44062168    -0.07600
C776        C  0.65809231  0.70223481  0.43936832    -0.03700
C777        C  0.67463918  0.70906522  0.44818945    -0.09000
C778        C  0.66280695  0.70408147  0.45798320    -0.16600
H779        H  0.61884084  0.71424742  0.51083305     0.11500
H780        H  0.63828298  0.71541642  0.49391281     0.10800
H781        H  0.56030913  0.64821857  0.48411573     0.10700
H782        H  0.54047980  0.64708651  0.50105038     0.11300
H783        H  0.59557493  0.67611965  0.45117674     0.11300
H784        H  0.61600787  0.68466298  0.43403275     0.11300
H785        H  0.69673589  0.71823373  0.44753299     0.11400
H786        H  0.67592851  0.70955957  0.46465990     0.10300
C787        C  0.39679696  0.45723932  0.57064509    -0.03500
C788        C  0.42071599  0.46238211  0.56529194    -0.09300
C789        C  0.43929931  0.48885620  0.56166985    -0.17000
C790        C  0.43438514  0.51068980  0.56333832     0.25200
C791        C  0.41113476  0.50599717  0.56893980    -0.18600
C792        C  0.39251001  0.47953086  0.57257883    -0.07500
C793        C  0.45240948  0.53745404  0.55884406    -0.14000
C794        C  0.46701319  0.55925337  0.55460365    -0.13700
C795        C  0.48409595  0.58462605  0.54905837     0.25100
C796        C  0.50367423  0.60822006  0.55420546    -0.19100
C797        C  0.52050069  0.63256720  0.54875277    -0.07600
C798        C  0.51808366  0.63370091  0.53804394    -0.03700
C799        C  0.49818982  0.60993240  0.53296219    -0.09000
C800        C  0.48136239  0.58565468  0.53842716    -0.16600
H801        H  0.42471668  0.44578847  0.56363285     0.11500
H802        H  0.45716817  0.49214256  0.55734838     0.10800
H803        H  0.40702917  0.52266938  0.57028761     0.10700
H804        H  0.37434374  0.47639991  0.57663432     0.11300
H805        H  0.50609063  0.60774728  0.56241647     0.11300
H806        H  0.53580754  0.65036156  0.55289712     0.11300
H807        H  0.49551150  0.61016480  0.52476393     0.11400
H808        H  0.46624719  0.56760574  0.53433609     0.10300
C809        C  0.50020351  0.43290774  0.44098030    -0.03500
C810        C  0.52316604  0.43686743  0.43522827    -0.09300
C811        C  0.53916271  0.46134501  0.42974792    -0.17000
C812        C  0.53262451  0.48238738  0.42992582     0.25200
C813        C  0.50975452  0.47863663  0.43555978    -0.18600
C814        C  0.49364166  0.45412118  0.44101218    -0.07500
C815        C  0.54978371  0.50803604  0.42455357    -0.14000
C816        C  0.56468543  0.52979586  0.42034013    -0.13700
C817        C  0.58310568  0.55632365  0.41575608     0.25100
C818        C  0.57656009  0.57736049  0.41597999    -0.19100
C819        C  0.59519336  0.60363763  0.41220309    -0.07600
C820        C  0.62077328  0.60937729  0.40811834    -0.03700
C821        C  0.62683887  0.58786123  0.40766161    -0.09000
C822        C  0.60817086  0.56159413  0.41146723    -0.16600
H823        H  0.52919234  0.42130782  0.43513080     0.11500
H824        H  0.55686211  0.46398114  0.42546753     0.10800
H825        H  0.50441006  0.49470899  0.43577053     0.10700
H826        H  0.47591946  0.45173634  0.44519227     0.11300
H827        H  0.55727725  0.57362312  0.41927145     0.11300
H828        H  0.58977715  0.61962572  0.41269634     0.11300
H829        H  0.64632400  0.59149155  0.40462829     0.11400
H830        H  0.61355597  0.54554277  0.41125357     0.10300
C831        C  0.35591636  0.36554331  0.53818134    -0.03500
C832        C  0.38452909  0.37684282  0.53703199    -0.09300
C833        C  0.39642938  0.38134457  0.52730384    -0.17000
C834        C  0.38002804  0.37466710  0.51854550     0.25200
C835        C  0.35157250  0.36361697  0.51957189    -0.18600
C836        C  0.33957688  0.35912679  0.52932342    -0.07500
C837        C  0.39248883  0.37841979  0.50856697    -0.14000
C838        C  0.40385421  0.38087771  0.50045383    -0.13700
C839        C  0.41800494  0.38257239  0.49101567     0.25100
C840        C  0.41822802  0.39905573  0.48288993    -0.19100
C841        C  0.43143093  0.39997047  0.47366352    -0.07600
C842        C  0.44451276  0.38430144  0.47244211    -0.03700
C843        C  0.44456529  0.36820104  0.48072788    -0.09000
C844        C  0.43141021  0.36734517  0.48992776    -0.16600
H845        H  0.39780109  0.38221585  0.54365494     0.11500
H846        H  0.41846195  0.38987446  0.52661862     0.10800
H847        H  0.33864756  0.35830563  0.51284639     0.10700
H848        H  0.31753196  0.35050142  0.52992328     0.11300
H849        H  0.40791891  0.41095091  0.48363849     0.11300
H850        H  0.43077617  0.41231513  0.46740601     0.11300
H851        H  0.45477414  0.35619157  0.48008605     0.11400
H852        H  0.43152043  0.35464124  0.49616574     0.10300
C853        C  0.90987555  0.34999681  0.17331148    -0.03500
C854        C  0.89515457  0.33103329  0.16551077    -0.09300
C855        C  0.90793028  0.33203155  0.15615745    -0.17000
C856        C  0.93558870  0.35186192  0.15450670     0.25200
C857        C  0.95051880  0.37030244  0.16232712    -0.18600
C858        C  0.93781539  0.36937631  0.17164672    -0.07500
C859        C  0.94845489  0.35422362  0.14468287    -0.14000
C860        C  0.95928229  0.35746693  0.13639326    -0.13700
C861        C  0.97138122  0.36195540  0.12630061     0.25100
C862        C  0.99989296  0.37381700  0.12504890    -0.19100
C863        C  0.01141827  0.37833521  0.11520142    -0.07600
C864        C  0.99454207  0.37108054  0.10646439    -0.03700
C865        C  0.96592908  0.35929653  0.10784404    -0.09000
C866        C  0.95450768  0.35479399  0.11766184    -0.16600
H867        H  0.87360179  0.31601161  0.16652959     0.11500
H868        H  0.89610718  0.31767304  0.15015415     0.10800
H869        H  0.97191559  0.38568873  0.16117149     0.10700
H870        H  0.94985648  0.38395862  0.17755498     0.11300
H871        H  0.01320580  0.37955697  0.13167596     0.11300
H872        H  0.03348062  0.38740231  0.11443390     0.11300
H873        H  0.95224455  0.35338173  0.10132768     0.11400
H874        H  0.93244567  0.34569474  0.11850971     0.10300
C875        C  0.72934456  0.12482828  0.23695931    -0.03500
C876        C  0.75178567  0.12912392  0.23079602    -0.09300
C877        C  0.76986743  0.15521161  0.22673386    -0.17000
C878        C  0.76596314  0.17752082  0.22877983     0.25200
C879        C  0.74422119  0.17367854  0.23514987    -0.18600
C880        C  0.72604125  0.14756971  0.23920458    -0.07500
C881        C  0.78350097  0.20395620  0.22397495    -0.14000
C882        C  0.79770006  0.22563666  0.21960450    -0.13700
C883        C  0.81438710  0.25116503  0.21410419     0.25100
C884        C  0.81188729  0.25229149  0.20346106    -0.19100
C885        C  0.82830318  0.27685543  0.19808413    -0.07600
C886        C  0.84750822  0.30077225  0.20327879    -0.03700
C887        C  0.84969898  0.29949182  0.21399025    -0.09000
C888        C  0.83330012  0.27489541  0.21934798    -0.16600
H889        H  0.75493552  0.11213927  0.22883880     0.11500
H890        H  0.78654673  0.15783415  0.22181201     0.10800
H891        H  0.74093725  0.19074636  0.23680510     0.10700
H892        H  0.70902947  0.14507903  0.24388739     0.11300
H893        H  0.79727301  0.23411626  0.19929736     0.11300
H894        H  0.82586598  0.27719053  0.18987605     0.11300
H895        H  0.86453483  0.31738866  0.21821775     0.11400
H896        H  0.83552618  0.27434408  0.22756622     0.10300
C897        C  0.83337377  0.10076514  0.10843125    -0.03500
C898        C  0.85521189  0.10375613  0.10219137    -0.09300
C899        C  0.87147776  0.12821421  0.09671243    -0.17000
C900        C  0.86627705  0.15013805  0.09738003     0.25200
C901        C  0.84460096  0.14735674  0.10353018    -0.18600
C902        C  0.82825345  0.12292173  0.10897223    -0.07500
C903        C  0.88337412  0.17564516  0.09191936    -0.14000
C904        C  0.89789997  0.19740265  0.08764376    -0.13700
C905        C  0.91596126  0.22387614  0.08295627     0.25100
C906        C  0.90933685  0.24487744  0.08321563    -0.19100
C907        C  0.92778554  0.27112380  0.07933714    -0.07600
C908        C  0.95319558  0.27679549  0.07511425    -0.03700
C909        C  0.95926814  0.25528249  0.07461590    -0.09000
C910        C  0.94083670  0.22911044  0.07852357    -0.16600
H911        H  0.86006955  0.08738882  0.10167132     0.11500
H912        H  0.88824914  0.13009147  0.09201984     0.10800
H913        H  0.84028888  0.16410461  0.10411921     0.10700
H914        H  0.81137640  0.12131423  0.11351055     0.11300
H915        H  0.89017309  0.24114578  0.08661681     0.11300
H916        H  0.92239962  0.28713082  0.07986154     0.11300
H917        H  0.97863054  0.25884704  0.07147906     0.11400
H918        H  0.94628084  0.21310021  0.07827994     0.10300
C919        C  0.77769392  0.05254969  0.13991734    -0.03500
C920        C  0.76585154  0.06916815  0.14162128    -0.09300
C921        C  0.75329676  0.06811044  0.15102690    -0.17000
C922        C  0.75258259  0.05057967  0.15884626     0.25200
C923        C  0.76497755  0.03456199  0.15729045    -0.18600
C924        C  0.77741953  0.03551702  0.14790880    -0.07500
C925        C  0.73869027  0.04838059  0.16840268    -0.14000
C926        C  0.72727222  0.04531900  0.17654692    -0.13700
C927        C  0.71451490  0.04094521  0.18649776     0.25100
C928        C  0.73047789  0.04621554  0.19531613    -0.19100
C929        C  0.71833649  0.04171354  0.20500001    -0.07600
C930        C  0.68991181  0.03182248  0.20604962    -0.03700
C931        C  0.67396974  0.02649685  0.19713253    -0.09000
C932        C  0.68621172  0.03101300  0.18742383    -0.16600
H933        H  0.76554745  0.08228092  0.13558410     0.11500
H934        H  0.74377831  0.08062775  0.15213910     0.10800
H935        H  0.76470926  0.02104354  0.16328702     0.10700
H936        H  0.78668035  0.02274775  0.14686565     0.11300
H937        H  0.75237160  0.05380530  0.19471151     0.11300
H938        H  0.73130599  0.04609543  0.21166874     0.11300
H939        H  0.65207622  0.01888972  0.19765224     0.11400
H940        H  0.67361156  0.02674614  0.18065015     0.10300
C941        C  0.92485360  0.38460915  0.97283628    -0.03500
C942        C  0.93422031  0.36573143  0.97409029    -0.09300
C943        C  0.94595851  0.36421316  0.98333020    -0.17000
C944        C  0.94844705  0.38146800  0.99146805     0.25200
C945        C  0.93973755  0.40078082  0.99021909    -0.18600
C946        C  0.92812024  0.40245110  0.98093323    -0.07500
C947        C  0.95894483  0.37853344  0.00118910    -0.14000
C948        C  0.96679743  0.37531376  0.00941405    -0.13700
C949        C  0.97514295  0.37148737  0.01944947     0.25100
C950        C  0.96964232  0.38297127  0.02797877    -0.19100
C951        C  0.97735895  0.37924132  0.03775725    -0.07600
C952        C  0.99082986  0.36397057  0.03918652    -0.03700
C953        C  0.99635689  0.35251355  0.03056297    -0.09000
C954        C  0.98847250  0.35618842  0.02075841    -0.16600
H955        H  0.93223056  0.35197421  0.96792902     0.11500
H956        H  0.95267770  0.34925524  0.98418147     0.10800
H957        H  0.94149408  0.41420846  0.99647335     0.10700
H958        H  0.92091357  0.41703916  0.98018118     0.11300
H959        H  0.95933005  0.39483230  0.02707584     0.11300
H960        H  0.97288561  0.38848220  0.04419590     0.11300
H961        H  0.00659948  0.34058386  0.03139890     0.11400
H962        H  0.99275064  0.34710742  0.01421488     0.10300
C963        C  0.91428163  0.43480867  0.94271806    -0.03500
C964        C  0.94237539  0.45494184  0.94220158    -0.09300
C965        C  0.95111298  0.47966990  0.93686472    -0.17000
C966        C  0.93199594  0.48480125  0.93191359     0.25200
C967        C  0.90400579  0.46483513  0.93230231    -0.18600
C968        C  0.89520207  0.44003097  0.93764080    -0.07500
C969        C  0.94113741  0.51068096  0.92658296    -0.14000
C970        C  0.94888427  0.53259209  0.92232329    -0.13700
C971        C  0.95765198  0.55901559  0.91747853     0.25100
C972        C  0.93872611  0.56345840  0.91203151    -0.19100
C973        C  0.94664768  0.58939499  0.90781986    -0.07600
C974        C  0.97370690  0.61149692  0.90899478    -0.03700
C975        C  0.99279424  0.60665962  0.91427875    -0.09000
C976        C  0.98480975  0.58064459  0.91847660    -0.16600
H977        H  0.95771545  0.45147906  0.94585077     0.11500
H978        H  0.97281351  0.49481816  0.93661797     0.10800
H979        H  0.88892949  0.46851059  0.92853505     0.10700
H980        H  0.87344323  0.42517718  0.93795004     0.11300
H981        H  0.91765711  0.54699052  0.91119723     0.11300
H982        H  0.93131299  0.59228567  0.90386737     0.11300
H983        H  0.01373142  0.62312973  0.91538697     0.11400
H984        H  0.99971364  0.57755995  0.92267101     0.10300
C985        C  0.04461847  0.45814950  0.06974193    -0.03500
C986        C  0.02564736  0.46291089  0.06434379    -0.09300
C987        C  0.03367695  0.48882953  0.06008961    -0.17000
C988        C  0.06076008  0.51048712  0.06114989     0.25200
C989        C  0.07966581  0.50613569  0.06666487    -0.18600
C990        C  0.07169454  0.48022099  0.07092728    -0.07500
C991        C  0.06920106  0.53691466  0.05639653    -0.14000
C992        C  0.07582171  0.55870128  0.05223930    -0.13700
C993        C  0.08309656  0.58441037  0.04711442     0.25100
C994        C  0.11032395  0.60621851  0.04712770    -0.19100
C995        C  0.11729737  0.63102758  0.04210906    -0.07600
C996        C  0.09713160  0.63443104  0.03696192    -0.03700
C997        C  0.06981052  0.61239427  0.03702832    -0.09000
C998        C  0.06289152  0.58764049  0.04205216    -0.16600
H999        H  0.00473268  0.44644480  0.06319165     0.11500
H1000       H  0.01881663  0.49185270  0.05583470     0.10800
H1001       H  0.10069133  0.52266087  0.06754559     0.10700
H1002       H  0.08693555  0.47733824  0.07495767     0.11300
H1003       H  0.12620774  0.60402199  0.05098475     0.11300
H1004       H  0.13855384  0.64738910  0.04212249     0.11300
H1005       H  0.05367266  0.61439192  0.03329610     0.11400
H1006       H  0.04173549  0.57101567  0.04199665     0.10300
C1007       C  0.08571144  0.68485554  0.00699348    -0.03500
C1008       C  0.07557099  0.70294704  0.00524799    -0.09300
C1009       C  0.06539520  0.70440994  0.99563246    -0.17000
C1010       C  0.06524199  0.68789907  0.98759082     0.25200
C1011       C  0.07488519  0.66947765  0.98929544    -0.18600
C1012       C  0.08495565  0.66787378  0.99894896    -0.07500
C1013       C  0.05591310  0.69054117  0.97755677    -0.14000
C1014       C  0.04873456  0.69369097  0.96916984    -0.13700
C1015       C  0.04098730  0.69794133  0.95906086     0.25100
C1016       C  0.05015757  0.69016702  0.95041682    -0.19100
C1017       C  0.04302553  0.69446005  0.94059815    -0.07600
C1018       C  0.02648996  0.70660337  0.93922974    -0.03700
C1019       C  0.01732602  0.71435208  0.94797210    -0.09000
C1020       C  0.02457914  0.71009209  0.95781053    -0.16600
H1021       H  0.07568440  0.71609380  0.01132217     0.11500
H1022       H  0.05796289  0.71870831  0.99443604     0.10800
H1023       H  0.07498182  0.65665350  0.98313307     0.10700
H1024       H  0.09290815  0.65397865  0.00004448     0.11300
H1025       H  0.06286425  0.68075462  0.95126047     0.11300
H1026       H  0.05033920  0.68806220  0.93407819     0.11300
H1027       H  0.00455025  0.72369457  0.94721508     0.11400
H1028       H  0.01738387  0.71626044  0.96443402     0.10300
C1029       C  0.60632137  0.71895050  0.30324724    -0.03500
C1030       C  0.61554730  0.70007624  0.30496051    -0.09300
C1031       C  0.62603062  0.69849164  0.31450622    -0.17000
C1032       C  0.62752328  0.71573737  0.32250729     0.25200
C1033       C  0.61921568  0.73520094  0.32078176    -0.18600
C1034       C  0.60877440  0.73687163  0.31121426    -0.07500
C1035       C  0.63631998  0.71253180  0.33258485    -0.14000
C1036       C  0.64251551  0.70905290  0.34111378    -0.13700
C1037       C  0.64874438  0.70463023  0.35146619     0.25100
C1038       C  0.63675024  0.71047665  0.35976861    -0.19100
C1039       C  0.64260961  0.70629979  0.36981562    -0.07600
C1040       C  0.66065005  0.69617293  0.37176672    -0.03700
C1041       C  0.67251289  0.69018464  0.36336415    -0.09000
C1042       C  0.66657727  0.69436710  0.35329820    -0.16600
H1043       H  0.61427221  0.68624529  0.29894782     0.11500
H1044       H  0.63245419  0.68340046  0.31570419     0.10800
H1045       H  0.62019801  0.74864570  0.32690141     0.10700
H1046       H  0.60162468  0.75143496  0.31017522     0.11300
H1047       H  0.62286909  0.71836613  0.35848043     0.11300
H1048       H  0.63312314  0.71120600  0.37605612     0.11300
H1049       H  0.68649592  0.68239329  0.36456135     0.11400
H1050       H  0.67595454  0.68967337  0.34695433     0.10300
C1051       C  0.58996232  0.76795266  0.27386681    -0.03500
C1052       C  0.61732300  0.78951096  0.27284216    -0.09300
C1053       C  0.62346855  0.81357887  0.26746447    -0.17000
C1054       C  0.60241987  0.81661208  0.26302768     0.25200
C1055       C  0.57508537  0.79535271  0.26404830    -0.18600
C1056       C  0.56889003  0.77119473  0.26940629    -0.07500
C1057       C  0.60901856  0.84171211  0.25757707    -0.14000
C1058       C  0.61551659  0.86338891  0.25335745    -0.13700
C1059       C  0.62419013  0.89018329  0.24889792     0.25100
C1060       C  0.60625936  0.89451390  0.24273445    -0.19100
C1061       C  0.61409646  0.92096889  0.23905753    -0.07600
C1062       C  0.64003153  0.94357361  0.24149763    -0.03700
C1063       C  0.65820080  0.93880178  0.24744057    -0.09000
C1064       C  0.65031384  0.91236460  0.25110437    -0.16600
H1065       H  0.63406615  0.78757127  0.27604692     0.11500
H1066       H  0.64469473  0.82981972  0.26674589     0.10800
H1067       H  0.55854933  0.79744839  0.26071503     0.10700
H1068       H  0.54760005  0.75515418  0.27014257     0.11300
H1069       H  0.58599699  0.87756970  0.24095204     0.11300
H1070       H  0.59954948  0.92381233  0.23451952     0.11300
H1071       H  0.67827204  0.95561779  0.24950061     0.11400
H1072       H  0.66442240  0.90934965  0.25585844     0.10300
C1073       C  0.76801868  0.96737975  0.36956885    -0.03500
C1074       C  0.76619660  0.96627103  0.38034385    -0.09300
C1075       C  0.75769845  0.94146581  0.38560515    -0.17000
C1076       C  0.75084475  0.91734831  0.38020132     0.25200
C1077       C  0.75301703  0.91831907  0.36950816    -0.18600
C1078       C  0.76157428  0.94308784  0.36423509    -0.07500
C1079       C  0.74127417  0.89153826  0.38557404    -0.14000
C1080       C  0.73319008  0.86962716  0.38983866    -0.13700
C1081       C  0.72401970  0.84317393  0.39465387     0.25100
C1082       C  0.69736309  0.82124640  0.39295956    -0.19100
C1083       C  0.68909342  0.79517123  0.39712801    -0.07600
C1084       C  0.70741085  0.79062287  0.40306808    -0.03700
C1085       C  0.73392540  0.81301915  0.40493426    -0.09000
C1086       C  0.74213268  0.83901609  0.40075104    -0.16600
H1087       H  0.77065124  0.98441290  0.38470925     0.11500
H1088       H  0.75613872  0.94103738  0.39387999     0.10800
H1089       H  0.74794916  0.89986385  0.36522631     0.10700
H1090       H  0.76321091  0.94321020  0.35597359     0.11300
H1091       H  0.68313259  0.82415261  0.38824086     0.11300
H1092       H  0.66862497  0.77843872  0.39547030     0.11300
H1093       H  0.74867584  0.81032068  0.40939566     0.11400
H1094       H  0.76282274  0.85575002  0.40210926     0.10300
C1095       C  0.75619051  0.01681679  0.33936899    -0.03500
C1096       C  0.72752836  0.00075311  0.33812355    -0.09300
C1097       C  0.71511607  0.00215533  0.32899484    -0.17000
C1098       C  0.73122459  0.01948739  0.32100220     0.25200
C1099       C  0.75979814  0.03500056  0.32211543    -0.18600
C1100       C  0.77218747  0.03370615  0.33121517    -0.07500
C1101       C  0.71877311  0.02170591  0.31164376    -0.14000
C1102       C  0.71037101  0.02467752  0.30349476    -0.13700
C1103       C  0.70270659  0.02873876  0.29336044     0.25100
C1104       C  0.71330534  0.02216438  0.28482312    -0.19100
C1105       C  0.70668808  0.02651958  0.27494252    -0.07600
C1106       C  0.68926716  0.03757012  0.27339652    -0.03700
C1107       C  0.67863237  0.04411889  0.28203242    -0.09000
C1108       C  0.68535936  0.03976541  0.29195063    -0.16600
H1109       H  0.71469816  0.98774828  0.34430251     0.11500
H1110       H  0.69297765  0.98999015  0.32821910     0.10800
H1111       H  0.77251609  0.04832181  0.31597172     0.10700
H1112       H  0.79433233  0.04603523  0.33190558     0.11300
H1113       H  0.72681724  0.01370288  0.28580001     0.11300
H1114       H  0.71519560  0.02112067  0.26851269     0.11300
H1115       H  0.66514182  0.05261031  0.28112942     0.11400
H1116       H  0.67710527  0.04504478  0.29849803     0.10300
C1117       C  0.37938032  0.12673749  0.73569083    -0.03500
C1118       C  0.36246088  0.13146662  0.72900483    -0.09300
C1119       C  0.37132452  0.15777310  0.72495932    -0.17000
C1120       C  0.39717066  0.17988898  0.72753929     0.25200
C1121       C  0.41388420  0.17558456  0.73438792    -0.18600
C1122       C  0.40510631  0.14924741  0.73842050    -0.07500
C1123       C  0.40674544  0.20665871  0.72288303    -0.14000
C1124       C  0.41410331  0.22846760  0.71861270    -0.13700
C1125       C  0.42191027  0.25387362  0.71315443     0.25100
C1126       C  0.44944453  0.27499040  0.71276617    -0.19100
C1127       C  0.45690022  0.29933855  0.70731373    -0.07600
C1128       C  0.43689922  0.30292965  0.70212757    -0.03700
C1129       C  0.40928117  0.28162182  0.70261157    -0.09000
C1130       C  0.40188315  0.25734668  0.70806778    -0.16600
H1131       H  0.34268565  0.11467612  0.72664477     0.11500
H1132       H  0.35817493  0.16074375  0.71965708     0.10800
H1133       H  0.43391813  0.19246544  0.73646598     0.10700
H1134       H  0.41872836  0.14641689  0.74351387     0.11300
H1135       H  0.46521507  0.27257366  0.71662522     0.11300
H1136       H  0.47834864  0.31511798  0.70700196     0.11300
H1137       H  0.39328327  0.28381173  0.69883765     0.11400
H1138       H  0.38052572  0.24125797  0.70830200     0.10300
C1139       C  0.32445553  0.03275985  0.70483887    -0.03500
C1140       C  0.31115236  0.04820414  0.70346338    -0.09300
C1141       C  0.30357186  0.05219028  0.69368778    -0.17000
C1142       C  0.30903976  0.04077204  0.68512221     0.25200
C1143       C  0.32227031  0.02537840  0.68638630    -0.18600
C1144       C  0.33003485  0.02147845  0.69617431    -0.07500
C1145       C  0.30044412  0.04440333  0.67510551    -0.14000
C1146       C  0.29195766  0.04701175  0.66692307    -0.13700
C1147       C  0.27997936  0.04889354  0.65739685     0.25100
C1148       C  0.29643538  0.06655546  0.64953940    -0.19100
C1149       C  0.28455384  0.06768955  0.64023792    -0.07600
C1150       C  0.25606219  0.05104477  0.63868707    -0.03700
C1151       C  0.23970558  0.03378228  0.64670947    -0.09000
C1152       C  0.25157582  0.03271033  0.65597111    -0.16600
H1153       H  0.30670514  0.05734981  0.70993957     0.11500
H1154       H  0.29331284  0.06411264  0.69281908     0.10800
H1155       H  0.32649202  0.01632175  0.67982187     0.10700
H1156       H  0.34016983  0.00943382  0.69696870     0.11300
H1157       H  0.31846688  0.07921562  0.65055803     0.11300
H1158       H  0.29767866  0.08098077  0.63418027     0.11300
H1159       H  0.21765093  0.02101202  0.64580670     0.11400
H1160       H  0.23860198  0.01910003  0.66199987     0.10300
C1161       C  0.24820453  0.01840368  0.83954252    -0.03500
C1162       C  0.23299811  0.00051528  0.83153795    -0.09300
C1163       C  0.24563214  0.00163025  0.82214466    -0.17000
C1164       C  0.27363490  0.02049619  0.82064444     0.25200
C1165       C  0.28904061  0.03788655  0.82865465    -0.18600
C1166       C  0.27646488  0.03684741  0.83802481    -0.07500
C1167       C  0.28635371  0.02285961  0.81078832    -0.14000
C1168       C  0.29676125  0.02576325  0.80243193    -0.13700
C1169       C  0.30825047  0.02979419  0.79224772     0.25100
C1170       C  0.33673203  0.04219518  0.79076950    -0.19100
C1171       C  0.34770526  0.04662738  0.78083629    -0.07600
C1172       C  0.33030684  0.03881971  0.77223660    -0.03700
C1173       C  0.30170991  0.02627588  0.77383646    -0.09000
C1174       C  0.29082692  0.02180631  0.78374615    -0.16600
H1175       H  0.21119168  0.98630950  0.83242996     0.11500
H1176       H  0.23344041  0.98812165  0.81599190     0.10800
H1177       H  0.31070185  0.05254244  0.82761227     0.10700
H1178       H  0.28882946  0.05064670  0.84407995     0.11300
H1179       H  0.35045886  0.04852551  0.79728656     0.11300
H1180       H  0.36977427  0.05623875  0.77989354     0.11300
H1181       H  0.28764862  0.01977864  0.76742395     0.11400
H1182       H  0.26876730  0.01219634  0.78477266     0.10300
C1183       C  0.06250144  0.79268041  0.90208665    -0.03500
C1184       C  0.05816157  0.81499202  0.90391336    -0.09300
C1185       C  0.07561815  0.84097271  0.89958681    -0.17000
C1186       C  0.09773599  0.84520068  0.89335523     0.25200
C1187       C  0.10262685  0.82333602  0.89169295    -0.18600
C1188       C  0.08522265  0.79734562  0.89601542    -0.07500
C1189       C  0.11493294  0.87166591  0.88845162    -0.14000
C1190       C  0.12924904  0.89353329  0.88418070    -0.13700
C1191       C  0.14673862  0.91947100  0.87898896     0.25100
C1192       C  0.14520889  0.92165125  0.86833863    -0.19100
C1193       C  0.16292789  0.94640538  0.86326800    -0.07600
C1194       C  0.18248785  0.96948376  0.86877471    -0.03700
C1195       C  0.18350455  0.96725043  0.87949504    -0.09000
C1196       C  0.16583110  0.94246695  0.88454379    -0.16600
H1197       H  0.04088620  0.81224600  0.90849173     0.11500
H1198       H  0.07154715  0.85765424  0.90096334     0.10800
H1199       H  0.11962928  0.82623284  0.88690228     0.10700
H1200       H  0.08918789  0.78071980  0.89437444     0.11300
H1201       H  0.13047316  0.90410385  0.86392528     0.11300
H1202       H  0.16132019  0.94750859  0.85504226     0.11300
H1203       H  0.19848722  0.98447830  0.88396641     0.11400
H1204       H  0.16732484  0.94114390  0.89277080     0.10300
C1205       C  0.16641651  0.76935318  0.77505232    -0.03500
C1206       C  0.15951139  0.79022305  0.77412451    -0.09300
C1207       C  0.17670992  0.81468247  0.76881909    -0.17000
C1208       C  0.20111327  0.81882190  0.76429497     0.25200
C1209       C  0.20816084  0.79817102  0.76511908    -0.18600
C1210       C  0.19098572  0.77366188  0.77044621    -0.07500
C1211       C  0.21889131  0.84435801  0.75891871    -0.14000
C1212       C  0.23342975  0.86613886  0.75463179    -0.13700
C1213       C  0.25084083  0.89266187  0.74981131     0.25100
C1214       C  0.27299167  0.89685240  0.74361357    -0.19100
C1215       C  0.29067196  0.92289184  0.73939100    -0.07600
C1216       C  0.28655005  0.94531014  0.74130087    -0.03700
C1217       C  0.26380531  0.94070409  0.74733637    -0.09000
C1218       C  0.24615416  0.91463485  0.75154932    -0.16600
H1219       H  0.14061491  0.78753991  0.77738950     0.11500
H1220       H  0.17090781  0.83040334  0.76823681     0.10800
H1221       H  0.22699501  0.80106350  0.76169742     0.10700
H1222       H  0.19719587  0.75827197  0.77109618     0.11300
H1223       H  0.27692317  0.88009562  0.74218979     0.11300
H1224       H  0.30798165  0.92559802  0.73484527     0.11300
H1225       H  0.26003082  0.95742419  0.74904135     0.11400
H1226       H  0.22913327  0.91175851  0.75632368     0.10300
C1227       C  0.01974634  0.69711609  0.87182852    -0.03500
C1228       C  0.00209402  0.69049086  0.86334051    -0.09300
C1229       C  0.01259568  0.69491408  0.85334309    -0.17000
C1230       C  0.04085414  0.70604838  0.85168451     0.25200
C1231       C  0.05851304  0.71251718  0.86006902    -0.18600
C1232       C  0.04809420  0.70810360  0.87005213    -0.07500
C1233       C  0.05187565  0.71064016  0.84141988    -0.14000
C1234       C  0.06204630  0.71417455  0.83299725    -0.13700
C1235       C  0.07491176  0.71727811  0.82313230     0.25100
C1236       C  0.10212839  0.73819602  0.82148083    -0.19100
C1237       C  0.11538927  0.73968398  0.81220635    -0.07600
C1238       C  0.10159776  0.72012463  0.80448005    -0.03700
C1239       C  0.07393557  0.69980136  0.80608464    -0.09000
C1240       C  0.06073613  0.69836799  0.81534097    -0.16600
H1241       H  0.98019717  0.68204313  0.86441655     0.11500
H1242       H  0.99869326  0.68972568  0.84691607     0.10800
H1243       H  0.08040484  0.72106426  0.85889262     0.10700
H1244       H  0.06231962  0.71351888  0.87637789     0.11300
H1245       H  0.11335471  0.75293469  0.82746721     0.11300
H1246       H  0.13670079  0.75541588  0.81123884     0.11300
H1247       H  0.06260122  0.68470827  0.80021687     0.11400
H1248       H  0.03968339  0.68214866  0.81650104     0.10300
C1249       C  0.89730295  0.40433037  0.20087771    -0.03500
C1250       C  0.92485803  0.42576987  0.20087196    -0.09300
C1251       C  0.93184542  0.45190687  0.20446009    -0.17000
C1252       C  0.91142870  0.45709414  0.20809670     0.25200
C1253       C  0.88396647  0.43577813  0.20830836    -0.18600
C1254       C  0.87692726  0.40949973  0.20475049    -0.07500
C1255       C  0.91890482  0.48442881  0.21146923    -0.14000
C1256       C  0.92676199  0.50777195  0.21417058    -0.13700
C1257       C  0.93780767  0.53582600  0.21752435     0.25100
C1258       C  0.92775945  0.54149433  0.22644275    -0.19100
C1259       C  0.94000614  0.56839597  0.23018220    -0.07600
C1260       C  0.96262064  0.59009441  0.22507456    -0.03700
C1261       C  0.97195819  0.58433270  0.21591204    -0.09000
C1262       C  0.95964188  0.55737386  0.21218431    -0.16600
H1263       H  0.94104600  0.42229527  0.19806989     0.11500
H1264       H  0.95315861  0.46813808  0.20431565     0.10800
H1265       H  0.86796766  0.43953499  0.21111835     0.10700
H1266       H  0.85555513  0.39344947  0.20478200     0.11300
H1267       H  0.91091603  0.52502511  0.23065047     0.11300
H1268       H  0.93225710  0.57201184  0.23726326     0.11300
H1269       H  0.98932414  0.60044709  0.21180521     0.11400
H1270       H  0.96763443  0.55323120  0.20527082     0.10300
C1271       C  0.74047077  0.60755669  0.20271626    -0.03500
C1272       C  0.76446896  0.61253219  0.19747149    -0.09300
C1273       C  0.78895766  0.62037061  0.20280572    -0.17000
C1274       C  0.78996812  0.62348330  0.21347256     0.25200
C1275       C  0.76617162  0.61849785  0.21875902    -0.18600
C1276       C  0.74162954  0.61055001  0.21344315    -0.07500
C1277       C  0.81542807  0.63200503  0.21895577    -0.14000
C1278       C  0.83696656  0.63937479  0.22338573    -0.13700
C1279       C  0.86320524  0.64838541  0.22834822     0.25100
C1280       C  0.88467660  0.67557526  0.22717013    -0.19100
C1281       C  0.91065290  0.68389775  0.23136273    -0.07600
C1282       C  0.91567611  0.66512732  0.23682066    -0.03700
C1283       C  0.89368734  0.63806474  0.23825513    -0.09000
C1284       C  0.86772730  0.62978908  0.23404263    -0.16600
H1285       H  0.76421866  0.61003377  0.18924215     0.11500
H1286       H  0.80712069  0.62403351  0.19860065     0.10800
H1287       H  0.76659750  0.62086505  0.22700268     0.10700
H1288       H  0.72365142  0.60714149  0.21770866     0.11300
H1289       H  0.88152759  0.69023716  0.22280491     0.11300
H1290       H  0.92699850  0.70484514  0.23007278     0.11300
H1291       H  0.89672740  0.62299230  0.24236776     0.11400
H1292       H  0.85135418  0.60870048  0.23503906     0.10300
C1293       C  0.00954523  0.71646638  0.20531490    -0.03500
C1294       C  0.99719524  0.73278005  0.20382697    -0.09300
C1295       C  0.99343980  0.74015311  0.19397601    -0.17000
C1296       C  0.00193427  0.73143814  0.18540529     0.25200
C1297       C  0.01422158  0.71517208  0.18676192    -0.18600
C1298       C  0.01795539  0.70767259  0.19664656    -0.07500
C1299       C  0.99834648  0.73970239  0.17528954    -0.14000
C1300       C  0.99553382  0.74793504  0.16705906    -0.13700
C1301       C  0.99315093  0.75935698  0.15743185     0.25100
C1302       C  0.97517787  0.74234990  0.14980417    -0.19100
C1303       C  0.97367209  0.75357325  0.14037442    -0.07600
C1304       C  0.99022901  0.78197071  0.13844196    -0.03700
C1305       C  0.00771864  0.79892812  0.14625277    -0.09000
C1306       C  0.00916689  0.78770107  0.15565015    -0.16600
H1307       H  0.99033214  0.73985332  0.21028384     0.11500
H1308       H  0.98394249  0.75276645  0.19305083     0.10800
H1309       H  0.02096829  0.70835033  0.18019350     0.10700
H1310       H  0.02752021  0.69511840  0.19750120     0.11300
H1311       H  0.96260614  0.72038715  0.15109163     0.11300
H1312       H  0.96015627  0.73995786  0.13449987     0.11300
H1313       H  0.02037210  0.82092111  0.14508171     0.11400
H1314       H  0.02299151  0.80113631  0.16150415     0.10300
C1315       C  0.37649408  0.92514174  0.27596874    -0.03500
C1316       C  0.39828240  0.95253358  0.27646850    -0.09300
C1317       C  0.42466315  0.95949595  0.27318551    -0.17000
C1318       C  0.42975682  0.93926757  0.26928842     0.25200
C1319       C  0.40805083  0.91210308  0.26840125    -0.18600
C1320       C  0.38153441  0.90505698  0.27170166    -0.07500
C1321       C  0.45743728  0.94659734  0.26644204    -0.14000
C1322       C  0.48111914  0.95441313  0.26423604    -0.13700
C1323       C  0.50955019  0.96544180  0.26136669     0.25100
C1324       C  0.51654920  0.95307119  0.25354288    -0.19100
C1325       C  0.54366296  0.96538159  0.24999132    -0.07600
C1326       C  0.56423714  0.99036197  0.25419496    -0.03700
C1327       C  0.55725469  0.00194229  0.26240035    -0.09000
C1328       C  0.53007370  0.98958310  0.26593210    -0.16600
H1329       H  0.39498332  0.96861010  0.27952385     0.11500
H1330       H  0.44117692  0.98059794  0.27382745     0.10800
H1331       H  0.41172076  0.89626187  0.26534691     0.10700
H1332       H  0.36526595  0.88382250  0.27125564     0.11300
H1333       H  0.50089502  0.93438612  0.24995965     0.11300
H1334       H  0.54827321  0.95581753  0.24368625     0.11300
H1335       H  0.57249194  0.02115234  0.26579292     0.11400
H1336       H  0.52490610  0.99936209  0.27200326     0.10300
C1337       C  0.09674623  0.75460504  0.24154959    -0.03500
C1338       C  0.11843019  0.74904150  0.24026508    -0.09300
C1339       C  0.14441146  0.76649568  0.24445515    -0.17000
C1340       C  0.14924277  0.78985032  0.24997672     0.25200
C1341       C  0.12806743  0.79601160  0.25105049    -0.18600
C1342       C  0.10204484  0.77857735  0.24687339    -0.07500
C1343       C  0.17560704  0.80700962  0.25479276    -0.14000
C1344       C  0.19733468  0.82136754  0.25903354    -0.13700
C1345       C  0.22289017  0.83905058  0.26427457     0.25100
C1346       C  0.22681082  0.86308574  0.26902869    -0.19100
C1347       C  0.25143941  0.88035432  0.27412182    -0.07600
C1348       C  0.27265926  0.87391574  0.27455135    -0.03700
C1349       C  0.26859678  0.84973186  0.26973130    -0.09000
C1350       C  0.24386023  0.83240801  0.26465625    -0.16600
H1351       H  0.11514612  0.73074918  0.23626973     0.11500
H1352       H  0.16057669  0.76146419  0.24355550     0.10800
H1353       H  0.13150334  0.81402599  0.25529803     0.10700
H1354       H  0.08589259  0.78348157  0.24806811     0.11300
H1355       H  0.21084289  0.86854043  0.26877555     0.11300
H1356       H  0.25403364  0.89900848  0.27760887     0.11300
H1357       H  0.28439400  0.84405878  0.26999807     0.11400
H1358       H  0.24109405  0.81382487  0.26103782     0.10300
C1359       C  0.97084844  0.81694033  0.36721557    -0.03500
C1360       C  0.96627585  0.83701992  0.37176812    -0.09300
C1361       C  0.93997860  0.83010452  0.37530151    -0.17000
C1362       C  0.91806135  0.80305303  0.37437007     0.25200
C1363       C  0.92269314  0.78286502  0.37012068    -0.18600
C1364       C  0.94883405  0.78971154  0.36658839    -0.07500
C1365       C  0.89066350  0.79566610  0.37764211    -0.14000
C1366       C  0.86713186  0.78729225  0.38023391    -0.13700
C1367       C  0.83887997  0.77509526  0.38352617     0.25100
C1368       C  0.81841568  0.75139578  0.37870380    -0.19100
C1369       C  0.79152120  0.73777036  0.38256767    -0.07600
C1370       C  0.78475309  0.74764442  0.39135308    -0.03700
C1371       C  0.80524343  0.77218379  0.39586670    -0.09000
C1372       C  0.83208244  0.78573178  0.39199442    -0.16600
H1373       H  0.98278248  0.85815609  0.37229473     0.11500
H1374       H  0.93666649  0.84590688  0.37861532     0.10800
H1375       H  0.90599937  0.76184163  0.36943289     0.10700
H1376       H  0.95180359  0.77369652  0.36327384     0.11300
H1377       H  0.82343683  0.74294678  0.37213912     0.11300
H1378       H  0.77632983  0.71899759  0.37890124     0.11300
H1379       H  0.80081340  0.78046639  0.40262160     0.11400
H1380       H  0.84770353  0.80402965  0.39579701     0.10300
C1381       C  0.02318168  0.80785767  0.33804914    -0.03500
C1382       C  0.04050102  0.79698481  0.33600479    -0.09300
C1383       C  0.03839633  0.78352632  0.32673604    -0.17000
C1384       C  0.01901617  0.78078933  0.31938412     0.25200
C1385       C  0.00221367  0.79215870  0.32124805    -0.18600
C1386       C  0.00431240  0.80563838  0.33047675    -0.07500
C1387       C  0.01608885  0.76617410  0.30995866    -0.14000
C1388       C  0.01313207  0.75436351  0.30192686    -0.13700
C1389       C  0.00970640  0.74148212  0.29206082     0.25100
C1390       C  0.01912279  0.75784215  0.28324327    -0.19100
C1391       C  0.01572376  0.74570393  0.27362638    -0.07600
C1392       C  0.00282334  0.71686208  0.27263937    -0.03700
C1393       C  0.99348090  0.70052327  0.28155474    -0.09000
C1394       C  0.99684892  0.71276696  0.29119835    -0.16600
H1395       H  0.05504501  0.79810555  0.34169188     0.11500
H1396       H  0.05159203  0.77489230  0.32537365     0.10800
H1397       H  0.98729191  0.79039409  0.31559968     0.10700
H1398       H  0.99100721  0.81419333  0.33171435     0.11300
H1399       H  0.02909699  0.78008340  0.28379326     0.11300
H1400       H  0.02328299  0.75897193  0.26696514     0.11300
H1401       H  0.98342173  0.67828090  0.28107529     0.11400
H1402       H  0.98940592  0.69986837  0.29796122     0.10300
C1403       C  0.38677344  0.14376230  0.42026498    -0.03500
C1404       C  0.37685838  0.14924603  0.42934695    -0.09300
C1405       C  0.38981577  0.17583889  0.43347658    -0.17000
C1406       C  0.41288754  0.19730581  0.42862612     0.25200
C1407       C  0.42343070  0.19184145  0.41979360    -0.18600
C1408       C  0.41054419  0.16532569  0.41565397    -0.07500
C1409       C  0.42485829  0.22517889  0.43235913    -0.14000
C1410       C  0.43399406  0.24867569  0.43517056    -0.13700
C1411       C  0.44356388  0.27661844  0.43842502     0.25100
C1412       C  0.44256651  0.29560848  0.43168640    -0.19100
C1413       C  0.45003687  0.32215028  0.43503680    -0.07600
C1414       C  0.45846324  0.33001300  0.44520983    -0.03700
C1415       C  0.46015591  0.31104591  0.45183789    -0.09000
C1416       C  0.45276135  0.28457125  0.44846754    -0.16600
H1417       H  0.35861386  0.13323661  0.43308323     0.11500
H1418       H  0.38141386  0.17979346  0.44031759     0.10800
H1419       H  0.44122982  0.20822618  0.41595758     0.10700
H1420       H  0.41880058  0.16193622  0.40865889     0.11300
H1421       H  0.43543054  0.28970522  0.42389779     0.11300
H1422       H  0.44826476  0.33616416  0.42978777     0.11300
H1423       H  0.46689924  0.31661457  0.45967994     0.11400
H1424       H  0.45372734  0.27014825  0.45375293     0.10300
C1425       C  0.25144117  0.98112126  0.40177086    -0.03500
C1426       C  0.22921539  0.98536772  0.40387026    -0.09300
C1427       C  0.20313812  0.96793153  0.39972546    -0.17000
C1428       C  0.19879948  0.94598117  0.39340541     0.25200
C1429       C  0.22061942  0.94125623  0.39143764    -0.18600
C1430       C  0.24668693  0.95860969  0.39558690    -0.07500
C1431       C  0.17225832  0.92881974  0.38869627    -0.14000
C1432       C  0.15039184  0.91465600  0.38450700    -0.13700
C1433       C  0.12461347  0.89775198  0.37926225     0.25100
C1434       C  0.12082670  0.87517868  0.37345123    -0.19100
C1435       C  0.09604988  0.85894226  0.36826269    -0.07600
C1436       C  0.07456331  0.86501602  0.36875963    -0.03700
C1437       C  0.07855085  0.88773464  0.37465215    -0.09000
C1438       C  0.10336096  0.90393229  0.37985170    -0.16600
H1439       H  0.23208342  0.00252369  0.40854405     0.11500
H1440       H  0.18647872  0.97186620  0.40131262     0.10800
H1441       H  0.21761103  0.92440009  0.38654567     0.10700
H1442       H  0.26327419  0.95479362  0.39372099     0.11300
H1443       H  0.13701998  0.87009227  0.37293707     0.11300
H1444       H  0.09360772  0.84137241  0.36395937     0.11300
H1445       H  0.06267697  0.89325542  0.37512044     0.11400
H1446       H  0.10601103  0.92139657  0.38429183     0.10300
C1447       C  0.32294015  0.93666220  0.30407498    -0.03500
C1448       C  0.34119559  0.96499044  0.30545261    -0.09300
C1449       C  0.34272591  0.97749259  0.31486235    -0.17000
C1450       C  0.32608748  0.96192877  0.32305672     0.25200
C1451       C  0.30741587  0.93380250  0.32170406    -0.18600
C1452       C  0.30575940  0.92125249  0.31225488    -0.07500
C1453       C  0.32898584  0.97471257  0.33291495    -0.14000
C1454       C  0.33238518  0.98548338  0.34120337    -0.13700
C1455       C  0.33684586  0.99758076  0.35127227     0.25100
C1456       C  0.33084039  0.98086013  0.35995450    -0.19100
C1457       C  0.33521345  0.99229181  0.36974537    -0.07600
C1458       C  0.34573180  0.02077644  0.37105347    -0.03700
C1459       C  0.35180770  0.03749388  0.36227139    -0.09000
C1460       C  0.34740149  0.02595745  0.35245181    -0.16600
H1461       H  0.35444169  0.97742571  0.29925630     0.11500
H1462       H  0.35721194  0.99926549  0.31578824     0.10800
H1463       H  0.29448341  0.92150274  0.32799102     0.10700
H1464       H  0.29168408  0.89936220  0.31143467     0.11300
H1465       H  0.32272565  0.95889047  0.35916229     0.11300
H1466       H  0.33023207  0.97872834  0.37629340     0.11300
H1467       H  0.35986430  0.05945809  0.36298282     0.11400
H1468       H  0.35219755  0.03914471  0.34579391     0.10300
C1469       C  0.63382696  0.92443187  0.55750204    -0.03500
C1470       C  0.61151736  0.90250020  0.56265599    -0.09300
C1471       C  0.59943659  0.87564790  0.55888424    -0.17000
C1472       C  0.60926817  0.87020170  0.54986413     0.25200
C1473       C  0.63075393  0.89197320  0.54446046    -0.18600
C1474       C  0.64297383  0.91891348  0.54824178    -0.07500
C1475       C  0.59840483  0.84212443  0.54652440    -0.14000
C1476       C  0.59051182  0.81861114  0.54401650    -0.13700
C1477       C  0.58294247  0.79094376  0.54101651     0.25100
C1478       C  0.60304163  0.78568349  0.53708244    -0.19100
C1479       C  0.59599483  0.75915291  0.53395447    -0.07600
C1480       C  0.56867481  0.73735116  0.53469628    -0.03700
C1481       C  0.54864510  0.74263962  0.53886066    -0.09000
C1482       C  0.55575341  0.76930552  0.54197772    -0.16600
H1483       H  0.60393630  0.90587217  0.56982487     0.11500
H1484       H  0.58290159  0.85903197  0.56315334     0.10800
H1485       H  0.63857877  0.88802356  0.53746191     0.10700
H1486       H  0.66006558  0.93521797  0.54408740     0.11300
H1487       H  0.62415156  0.80213825  0.53636738     0.11300
H1488       H  0.61197862  0.75567618  0.53091770     0.11300
H1489       H  0.52744148  0.72636888  0.53944773     0.11400
H1490       H  0.53998908  0.77309005  0.54503754     0.10300
C1491       C  0.68117665  0.05079568  0.53840654    -0.03500
C1492       C  0.68028619  0.03487360  0.52995136    -0.09300
C1493       C  0.67518384  0.04124424  0.52010517    -0.17000
C1494       C  0.67101962  0.06363634  0.51858941     0.25200
C1495       C  0.67211533  0.07970432  0.52693518    -0.18600
C1496       C  0.67709093  0.07333701  0.53676700    -0.07500
C1497       C  0.66596021  0.07048405  0.50848640    -0.14000
C1498       C  0.66246232  0.07748202  0.50013777    -0.13700
C1499       C  0.65976390  0.08733518  0.49024933     0.25100
C1500       C  0.63908949  0.09390452  0.48848393    -0.19100
C1501       C  0.63765107  0.10508933  0.47905361    -0.07600
C1502       C  0.65696275  0.10993040  0.47128907    -0.03700
C1503       C  0.67721772  0.10258959  0.47307370    -0.09000
C1504       C  0.67862784  0.09146675  0.48248876    -0.16600
H1505       H  0.68314076  0.01727450  0.53096209     0.11500
H1506       H  0.67441692  0.02869128  0.51369354     0.10800
H1507       H  0.66904147  0.09715956  0.52584895     0.10700
H1508       H  0.67766169  0.08604640  0.54308595     0.11300
H1509       H  0.62443792  0.09087797  0.49445047     0.11300
H1510       H  0.62196808  0.11073905  0.47795244     0.11300
H1511       H  0.69208450  0.10559709  0.46720472     0.11400
H1512       H  0.69469910  0.08642350  0.48376022     0.10300
C1513       C  0.43176246  0.06827656  0.40793775    -0.03500
C1514       C  0.43659466  0.04819733  0.41242567    -0.09300
C1515       C  0.46194119  0.05569275  0.41700425    -0.17000
C1516       C  0.48282193  0.08333315  0.41720039     0.25200
C1517       C  0.47844656  0.10334652  0.41254941    -0.18600
C1518       C  0.45318357  0.09590675  0.40793398    -0.07500
C1519       C  0.50846914  0.09130413  0.42237255    -0.14000
C1520       C  0.52992951  0.09828241  0.42675060    -0.13700
C1521       C  0.55569778  0.10668691  0.43190021     0.25100
C1522       C  0.57906574  0.11211665  0.42623128    -0.19100
C1523       C  0.60399279  0.11989875  0.43118943    -0.07600
C1524       C  0.60598424  0.12241595  0.44192505    -0.03700
C1525       C  0.58240320  0.11712692  0.44755417    -0.09000
C1526       C  0.55748046  0.10931608  0.44257592    -0.16600
H1527       H  0.42058536  0.02678356  0.41261786     0.11500
H1528       H  0.46505770  0.03997623  0.42056216     0.10800
H1529       H  0.49439629  0.12480157  0.41265240     0.10700
H1530       H  0.45015422  0.11196884  0.40466058     0.11300
H1531       H  0.57797521  0.11012397  0.41797180     0.11300
H1532       H  0.62156653  0.12340291  0.42662395     0.11300
H1533       H  0.58326724  0.11922575  0.45580468     0.11400
H1534       H  0.53958970  0.10528747  0.44706049     0.10300
C1535       C  0.58722883  0.00128852  0.56907979    -0.03500
C1536       C  0.56494005  0.97421740  0.57005935    -0.09300
C1537       C  0.53904462  0.96702933  0.56603787    -0.17000
C1538       C  0.53487130  0.98673349  0.56098955     0.25200
C1539       C  0.55676734  0.01382411  0.56014124    -0.18600
C1540       C  0.58269738  0.02105499  0.56413410    -0.07500
C1541       C  0.50840735  0.97902548  0.55645433    -0.14000
C1542       C  0.48653898  0.97259844  0.55244405    -0.13700
C1543       C  0.46068710  0.96502799  0.54740786     0.25100
C1544       C  0.45736349  0.98484916  0.54204523    -0.19100
C1545       C  0.43264189  0.97747962  0.53696410    -0.07600
C1546       C  0.41070147  0.95006295  0.53711750    -0.03700
C1547       C  0.41415487  0.93033411  0.54262005    -0.09000
C1548       C  0.43891485  0.93776519  0.54770395    -0.16600
H1549       H  0.56763529  0.95837599  0.57372828     0.11500
H1550       H  0.52237352  0.94598046  0.56674154     0.10800
H1551       H  0.55391719  0.02931992  0.55625303     0.10700
H1552       H  0.59931025  0.04203214  0.56318274     0.11300
H1553       H  0.47392710  0.00603304  0.54176327     0.11300
H1554       H  0.43064341  0.99335794  0.53298273     0.11300
H1555       H  0.39792065  0.90902228  0.54283201     0.11400
H1556       H  0.44114762  0.92215328  0.55179524     0.10300
C1557       C  0.33837346  0.01715414  0.43844762    -0.03500
C1558       C  0.33027340  0.02609711  0.44715502    -0.09300
C1559       C  0.33489849  0.01929525  0.45702132    -0.17000
C1560       C  0.34779169  0.00358352  0.45833815     0.25200
C1561       C  0.35592040  0.99463229  0.44972686    -0.18600
C1562       C  0.35125171  0.00130540  0.43987798    -0.07500
C1563       C  0.35240768  0.99630938  0.46848652    -0.14000
C1564       C  0.35573061  0.98951413  0.47693011    -0.13700
C1565       C  0.35830853  0.98051648  0.48705337     0.25100
C1566       C  0.37819598  0.97297966  0.48910372    -0.19100
C1567       C  0.37961190  0.96298924  0.49882051    -0.07600
C1568       C  0.36103014  0.96025407  0.50659631    -0.03700
C1569       C  0.34157562  0.96849516  0.50451050    -0.09000
C1570       C  0.34023097  0.97848878  0.49482923    -0.16600
H1571       H  0.32037075  0.03835189  0.44634903     0.11500
H1572       H  0.32843742  0.02630490  0.46361662     0.10800
H1573       H  0.36590338  0.98245990  0.45061964     0.10700
H1574       H  0.35795732  0.99420709  0.43338259     0.11300
H1575       H  0.39228003  0.97438821  0.48315539     0.11300
H1576       H  0.39465440  0.95659061  0.50015386     0.11300
H1577       H  0.32724358  0.96702379  0.51036108     0.11400
H1578       H  0.32479778  0.98431484  0.49337225     0.10300
C1579       C  0.04479327  0.25282319  0.61234190    -0.03500
C1580       C  0.05143977  0.26035040  0.60199797    -0.09300
C1581       C  0.07750491  0.26753058  0.59819298    -0.17000
C1582       C  0.09724675  0.26719070  0.60465073     0.25200
C1583       C  0.09064052  0.25920726  0.61490191    -0.18600
C1584       C  0.06461874  0.25207392  0.61872660    -0.07500
C1585       C  0.12463545  0.27626130  0.60088657    -0.14000
C1586       C  0.14786795  0.28523826  0.59780659    -0.13700
C1587       C  0.17578299  0.29754818  0.59411640     0.25100
C1588       C  0.19636881  0.32190638  0.59852034    -0.19100
C1589       C  0.22316762  0.33487739  0.59459216    -0.07600
C1590       C  0.22974852  0.32370580  0.58614671    -0.03700
C1591       C  0.20901429  0.29884786  0.58191689    -0.09000
C1592       C  0.18225212  0.28588908  0.58587769    -0.16600
H1593       H  0.03676777  0.26146416  0.59692612     0.11500
H1594       H  0.08242021  0.27382583  0.59025931     0.10800
H1595       H  0.10573072  0.25886515  0.61997889     0.10700
H1596       H  0.06001339  0.24606271  0.62669314     0.11300
H1597       H  0.19158650  0.33118236  0.60488176     0.11300
H1598       H  0.23850314  0.35403987  0.59798340     0.11300
H1599       H  0.21331321  0.28966034  0.57540379     0.11400
H1600       H  0.16651481  0.26707570  0.58239343     0.10300
C1601       C  0.94195390  0.20846321  0.60902388    -0.03500
C1602       C  0.93836724  0.18524472  0.60356722    -0.09300
C1603       C  0.91420575  0.16892064  0.59804458    -0.17000
C1604       C  0.89314997  0.17540891  0.59787827     0.25200
C1605       C  0.89650276  0.19846452  0.60326011    -0.18600
C1606       C  0.92068404  0.21486477  0.60877712    -0.07500
C1607       C  0.86794996  0.15816955  0.59235051    -0.14000
C1608       C  0.84654042  0.14350112  0.58795727    -0.13700
C1609       C  0.82037451  0.12570121  0.58309967     0.25100
C1610       C  0.79939119  0.13228545  0.58344434    -0.19100
C1611       C  0.77345417  0.11429140  0.57933081    -0.07600
C1612       C  0.76802115  0.08932821  0.57477079    -0.03700
C1613       C  0.78949940  0.08324722  0.57420851    -0.09000
C1614       C  0.81541828  0.10126003  0.57836033    -0.16600
H1615       H  0.95402851  0.17939789  0.60369875     0.11500
H1616       H  0.91187249  0.15106856  0.59396028     0.10800
H1617       H  0.88042464  0.20376045  0.60319993     0.10700
H1618       H  0.92284425  0.23276827  0.61275663     0.11300
H1619       H  0.80289660  0.15110426  0.58708577     0.11300
H1620       H  0.75747653  0.11966259  0.57993649     0.11300
H1621       H  0.78606125  0.06415895  0.57084020     0.11400
H1622       H  0.83141510  0.09584554  0.57805233     0.10300
C1623       C  0.45145240  0.07679071  0.72263463    -0.03500
C1624       C  0.45735145  0.06546393  0.71405528    -0.09300
C1625       C  0.48424760  0.07746199  0.71020946    -0.17000
C1626       C  0.50556394  0.10096717  0.71484264     0.25200
C1627       C  0.49969192  0.11291000  0.72313558    -0.18600
C1628       C  0.47290252  0.10098682  0.72699051    -0.07500
C1629       C  0.53367564  0.11190550  0.71152014    -0.14000
C1630       C  0.55728313  0.11996503  0.70909998    -0.13700
C1631       C  0.58507881  0.12757930  0.70628611     0.25100
C1632       C  0.60631556  0.15511193  0.70658154    -0.19100
C1633       C  0.63310769  0.16216977  0.70364310    -0.07600
C1634       C  0.63885706  0.14173551  0.70031691    -0.03700
C1635       C  0.61748735  0.11412737  0.70025262    -0.09000
C1636       C  0.59086006  0.10713138  0.70321254    -0.16600
H1637       H  0.44144509  0.04680930  0.71055355     0.11500
H1638       H  0.48854381  0.06796069  0.70379416     0.10800
H1639       H  0.51595918  0.13103641  0.72680273     0.10700
H1640       H  0.46919796  0.11031149  0.73360416     0.11300
H1641       H  0.60211148  0.17114478  0.70896909     0.11300
H1642       H  0.64909322  0.18358261  0.70367295     0.11300
H1643       H  0.62137362  0.09791455  0.69782194     0.11400
H1644       H  0.57471544  0.08577432  0.70301376     0.10300
C1645       C  0.67290501  0.04884267  0.60566862    -0.03500
C1646       C  0.66249716  0.03165810  0.61433772    -0.09300
C1647       C  0.66639419  0.04299433  0.62416210    -0.17000
C1648       C  0.68087899  0.07162099  0.62545664     0.25200
C1649       C  0.69126887  0.08883904  0.61688227    -0.18600
C1650       C  0.68730383  0.07759416  0.60707156    -0.07500
C1651       C  0.68505170  0.08343461  0.63554912    -0.14000
C1652       C  0.68835425  0.09368873  0.64392414    -0.13700
C1653       C  0.69120451  0.10572010  0.65391634     0.25100
C1654       C  0.71114053  0.13325464  0.65569048    -0.19100
C1655       C  0.71267616  0.14525238  0.66524885    -0.07600
C1656       C  0.69415648  0.12987242  0.67312007    -0.03700
C1657       C  0.67478830  0.10199395  0.67134296    -0.09000
C1658       C  0.67331085  0.09007088  0.66181521    -0.16600
H1659       H  0.65127715  0.00945988  0.61352895     0.11500
H1660       H  0.65817579  0.02945720  0.63073738     0.10800
H1661       H  0.70250934  0.11102651  0.61777709     0.10700
H1662       H  0.69574036  0.09144784  0.60059524     0.11300
H1663       H  0.72509032  0.14557942  0.64963468     0.11300
H1664       H  0.72765723  0.16680939  0.66636319     0.11300
H1665       H  0.66052349  0.08950863  0.67729202     0.11400
H1666       H  0.65786351  0.06871729  0.66055938     0.10300
C1667       C  0.78391042  0.99692883  0.11145133    -0.03500
C1668       C  0.80357760  0.99090917  0.10745736    -0.09300
C1669       C  0.79570828  0.96415562  0.10418857    -0.17000
C1670       C  0.76809131  0.94322663  0.10479908     0.25200
C1671       C  0.74838728  0.94929497  0.10856103    -0.18600
C1672       C  0.75621218  0.97588044  0.11187313    -0.07500
C1673       C  0.75967151  0.91547822  0.10160290    -0.14000
C1674       C  0.75111681  0.89196991  0.09891364    -0.13700
C1675       C  0.73969477  0.86396397  0.09538423     0.25100
C1676       C  0.71517413  0.84288217  0.09960174    -0.19100
C1677       C  0.70299487  0.81613780  0.09563513    -0.07600
C1678       C  0.71515244  0.81010969  0.08734749    -0.03700
C1679       C  0.74024219  0.83130794  0.08337829    -0.09000
C1680       C  0.75235953  0.85797183  0.08735874    -0.16600
H1681       H  0.82505917  0.00667650  0.10713445     0.11500
H1682       H  0.81117184  0.95974686  0.10127938     0.10800
H1683       H  0.72696064  0.93339559  0.10901643     0.10700
H1684       H  0.74059631  0.98000394  0.11482736     0.11300
H1685       H  0.70510581  0.84725289  0.10580474     0.11300
H1686       H  0.68365259  0.80044230  0.09884049     0.11300
H1687       H  0.75020962  0.82750485  0.07699257     0.11400
H1688       H  0.77128567  0.87405475  0.08401228     0.10300
C1689       C  0.93981207  0.78880864  0.10762154    -0.03500
C1690       C  0.91889899  0.76097191  0.10746041    -0.09300
C1691       C  0.89416354  0.75288481  0.10229420    -0.17000
C1692       C  0.88990795  0.77247067  0.09720662     0.25200
C1693       C  0.91060461  0.80018111  0.09729439    -0.18600
C1694       C  0.93536985  0.80830959  0.10244106    -0.07500
C1695       C  0.86421979  0.76423590  0.09201898    -0.14000
C1696       C  0.84258458  0.75761693  0.08783752    -0.13700
C1697       C  0.81640774  0.74991204  0.08315162     0.25100
C1698       C  0.81202658  0.76988538  0.07845022    -0.19100
C1699       C  0.78617550  0.76270070  0.07441940    -0.07600
C1700       C  0.76423042  0.73539608  0.07507530    -0.03700
C1701       C  0.76905383  0.71535604  0.07960727    -0.09000
C1702       C  0.79492655  0.72257926  0.08359982    -0.16600
H1703       H  0.92177163  0.74536770  0.11125405     0.11500
H1704       H  0.87836995  0.73139046  0.10228107     0.10800
H1705       H  0.90754320  0.81558580  0.09342671     0.10700
H1706       H  0.95083864  0.82989805  0.10251641     0.11300
H1707       H  0.82844694  0.79111675  0.07806635     0.11300
H1708       H  0.78318859  0.77869575  0.07105293     0.11300
H1709       H  0.75269275  0.69416525  0.08025504     0.11400
H1710       H  0.79802033  0.70690496  0.08721098     0.10300
C1711       C  0.69020043  0.61647031  0.17213808    -0.03500
C1712       C  0.67435550  0.59998470  0.16392500    -0.09300
C1713       C  0.67267579  0.61194856  0.15473738    -0.17000
C1714       C  0.68672721  0.64060505  0.15357390     0.25200
C1715       C  0.70291908  0.65723890  0.16164922    -0.18600
C1716       C  0.70472777  0.64525763  0.17086430    -0.07500
C1717       C  0.68424767  0.65260041  0.14408200    -0.14000
C1718       C  0.68127184  0.66087466  0.13587341    -0.13700
C1719       C  0.67732224  0.66883808  0.12573473     0.25100
C1720       C  0.66721119  0.68700482  0.12439852    -0.19100
C1721       C  0.66314039  0.69423292  0.11451097    -0.07600
C1722       C  0.66905447  0.68331201  0.10580534    -0.03700
C1723       C  0.67916351  0.66504454  0.10726656    -0.09000
C1724       C  0.68324097  0.65791874  0.11712374    -0.16600
H1725       H  0.66317682  0.57776126  0.16462629     0.11500
H1726       H  0.66021650  0.59880373  0.14855319     0.10800
H1727       H  0.71392656  0.67944593  0.16086190     0.10700
H1728       H  0.71686683  0.65847809  0.17708025     0.11300
H1729       H  0.66246185  0.69556272  0.13098713     0.11300
H1730       H  0.65539550  0.70837759  0.11368775     0.11300
H1731       H  0.68407191  0.65628952  0.10078531     0.11400
H1732       H  0.69101799  0.64380467  0.11802392     0.10300
C1733       C  0.71115733  0.59893229  0.94240179    -0.03500
C1734       C  0.73335333  0.62602699  0.94324970    -0.09300
C1735       C  0.75979083  0.63258618  0.94016777    -0.17000
C1736       C  0.76454038  0.61224669  0.93613665     0.25200
C1737       C  0.74246324  0.58540126  0.93492942    -0.18600
C1738       C  0.71591614  0.57876422  0.93802624    -0.07500
C1739       C  0.79220366  0.61910139  0.93344232    -0.14000
C1740       C  0.81580620  0.62631263  0.93130145    -0.13700
C1741       C  0.84410703  0.63638398  0.92842677     0.25100
C1742       C  0.85030690  0.62410565  0.92033828    -0.19100
C1743       C  0.87736636  0.63551907  0.91681665    -0.07600
C1744       C  0.89874864  0.65956191  0.92129533    -0.03700
C1745       C  0.89251843  0.67104115  0.92973820    -0.09000
C1746       C  0.86536275  0.65953004  0.93325920    -0.16600
H1747       H  0.73032498  0.64216138  0.94642144     0.11500
H1748       H  0.77660144  0.65345457  0.94106290     0.10800
H1749       H  0.74584868  0.56946799  0.93177811     0.10700
H1750       H  0.69937305  0.55771367  0.93734428     0.11300
H1751       H  0.83409943  0.60621194  0.91653325     0.11300
H1752       H  0.88131572  0.62606457  0.91030394     0.11300
H1753       H  0.90836844  0.68955814  0.93333684     0.11400
H1754       H  0.86082374  0.66923693  0.93953694     0.10300
C1755       C  0.68069993  0.68847937  0.03843888    -0.03500
C1756       C  0.68028787  0.70323759  0.02976410    -0.09300
C1757       C  0.67585618  0.69150978  0.01998768    -0.17000
C1758       C  0.67192929  0.66496262  0.01873884     0.25200
C1759       C  0.67297037  0.65042743  0.02729081    -0.18600
C1760       C  0.67726771  0.66202465  0.03705486    -0.07500
C1761       C  0.66667825  0.65250941  0.00872188    -0.14000
C1762       C  0.66271494  0.64203679  0.00035829    -0.13700
C1763       C  0.65951094  0.63033295  0.99027314     0.25100
C1764       C  0.64178931  0.60211912  0.98864177    -0.19100
C1765       C  0.64012003  0.59073996  0.97893806    -0.07600
C1766       C  0.65636553  0.60742755  0.97079436    -0.03700
C1767       C  0.67353866  0.63581352  0.97245148    -0.09000
C1768       C  0.67504433  0.64714845  0.98210821    -0.16600
H1769       H  0.68281815  0.72361038  0.03055242     0.11500
H1770       H  0.67521578  0.70302304  0.01342627     0.10800
H1771       H  0.67016458  0.62995033  0.02643039     0.10700
H1772       H  0.67765702  0.65014284  0.04353244     0.11300
H1773       H  0.62969724  0.58887388  0.99489669     0.11300
H1774       H  0.62687981  0.56876881  0.97788272     0.11300
H1775       H  0.68604685  0.64916091  0.96629130     0.11400
H1776       H  0.68875975  0.66901389  0.98325103     0.10300
C1777       C  0.30494347  0.48194054  0.03292739    -0.03500
C1778       C  0.29762399  0.47479942  0.04324876    -0.09300
C1779       C  0.27093565  0.46672788  0.04662555    -0.17000
C1780       C  0.25134397  0.46586511  0.03974976     0.25200
C1781       C  0.25886160  0.47414254  0.02958341    -0.18600
C1782       C  0.28545479  0.48219211  0.02620099    -0.07500
C1783       C  0.22324690  0.45532197  0.04297808    -0.14000
C1784       C  0.19963319  0.44571950  0.04570106    -0.13700
C1785       C  0.17178718  0.43400218  0.04941384     0.25100
C1786       C  0.16667258  0.44391711  0.05847054    -0.19100
C1787       C  0.14005381  0.43172925  0.06248651    -0.07600
C1788       C  0.11800185  0.40928830  0.05752196    -0.03700
C1789       C  0.12320572  0.39984955  0.04826825    -0.09000
C1790       C  0.14994785  0.41213311  0.04425466    -0.16600
H1791       H  0.31211391  0.47426361  0.04858208     0.11500
H1792       H  0.26536543  0.46042159  0.05452676     0.10800
H1793       H  0.24397927  0.47374823  0.02420398     0.10700
H1794       H  0.29062716  0.48802988  0.01824390     0.11300
H1795       H  0.18336479  0.46076456  0.06254174     0.11300
H1796       H  0.13691111  0.43952592  0.06963825     0.11300
H1797       H  0.10680623  0.38255492  0.04428121     0.11400
H1798       H  0.15366532  0.40422923  0.03723526     0.10300
C1799       C  0.40816985  0.52477218  0.03568414    -0.03500
C1800       C  0.40950410  0.52470973  0.04646214    -0.09300
C1801       C  0.43429973  0.54165139  0.05155315    -0.17000
C1802       C  0.45819557  0.55891106  0.04598418     0.25200
C1803       C  0.45710023  0.55911552  0.03527072    -0.18600
C1804       C  0.43234105  0.54225283  0.03016608    -0.07500
C1805       C  0.48383135  0.57636397  0.05122630    -0.14000
C1806       C  0.50551768  0.59105136  0.05544626    -0.13700
C1807       C  0.53182417  0.60879651  0.06021575     0.25100
C1808       C  0.55408981  0.60466502  0.05841771    -0.19100
C1809       C  0.57992992  0.62255436  0.06262489    -0.07600
C1810       C  0.58399842  0.64499993  0.06870842    -0.03700
C1811       C  0.56131757  0.64862790  0.07065219    -0.09000
C1812       C  0.53547627  0.63067898  0.06643640    -0.16600
H1813       H  0.39148179  0.51132326  0.05095961     0.11500
H1814       H  0.43483374  0.54120962  0.05985095     0.10800
H1815       H  0.47536583  0.57239875  0.03085676     0.10700
H1816       H  0.43206704  0.54326153  0.02188128     0.11300
H1817       H  0.55160362  0.58785214  0.05361307     0.11300
H1818       H  0.59686709  0.61916777  0.06089655     0.11300
H1819       H  0.56365495  0.66572720  0.07523635     0.11400
H1820       H  0.51846212  0.63415735  0.06789166     0.10300
C1821       C  0.23608390  0.07329108  0.86695093    -0.03500
C1822       C  0.21558743  0.07882639  0.87039467    -0.09300
C1823       C  0.22251097  0.10542356  0.87349298    -0.17000
C1824       C  0.24996019  0.12672547  0.87323225     0.25200
C1825       C  0.27053861  0.12117451  0.87011098    -0.18600
C1826       C  0.26367293  0.09468559  0.86699711    -0.07500
C1827       C  0.25720401  0.15438185  0.87604023    -0.14000
C1828       C  0.26455509  0.17782016  0.87844453    -0.13700
C1829       C  0.27471174  0.20571394  0.88180460     0.25100
C1830       C  0.29646336  0.22774750  0.87661308    -0.19100
C1831       C  0.30832168  0.25446909  0.88056025    -0.07600
C1832       C  0.29855928  0.25944760  0.88977994    -0.03700
C1833       C  0.27584509  0.23729955  0.89466383    -0.09000
C1834       C  0.26410455  0.21066982  0.89072051    -0.16600
H1835       H  0.19420094  0.06286096  0.87036781     0.11500
H1836       H  0.20639679  0.10946100  0.87593543     0.10800
H1837       H  0.29184308  0.13738905  0.86996026     0.10700
H1838       H  0.27996622  0.09095579  0.86452278     0.11300
H1839       H  0.30485209  0.22414635  0.86969209     0.11300
H1840       H  0.32572008  0.27098269  0.87660430     0.11300
H1841       H  0.26774543  0.24029936  0.90177428     0.11400
H1842       H  0.24731861  0.19381505  0.89481007     0.10300
C1843       C  0.43145777  0.42262829  0.90876524    -0.03500
C1844       C  0.45388553  0.41849481  0.90697246    -0.09300
C1845       C  0.47978115  0.43638000  0.91115167    -0.17000
C1846       C  0.48370320  0.45866056  0.91718574     0.25200
C1847       C  0.46164709  0.46316811  0.91889052    -0.18600
C1848       C  0.43576521  0.44535734  0.91471815    -0.07500
C1849       C  0.51013878  0.47660600  0.92179654    -0.14000
C1850       C  0.53194084  0.49168870  0.92585344    -0.13700
C1851       C  0.55765769  0.50984078  0.93089287     0.25100
C1852       C  0.57946576  0.53098477  0.92539442    -0.19100
C1853       C  0.60420749  0.54886568  0.93033245    -0.07600
C1854       C  0.60743275  0.54596059  0.94087248    -0.03700
C1855       C  0.58545833  0.52458826  0.94632265    -0.09000
C1856       C  0.56080471  0.50664426  0.94136230    -0.16600
H1857       H  0.45133059  0.40114310  0.90250085     0.11500
H1858       H  0.49664904  0.43261443  0.90978257     0.10800
H1859       H  0.46435702  0.48028077  0.92356192     0.10700
H1860       H  0.41900097  0.44909426  0.91634415     0.11300
H1861       H  0.57729187  0.53376913  0.91730098     0.11300
H1862       H  0.62063831  0.56529093  0.92595864     0.11300
H1863       H  0.58743034  0.52165292  0.95441614     0.11400
H1864       H  0.54414720  0.49035087  0.94570842     0.10300
C1865       C  0.33569851  0.38135142  0.93876279    -0.03500
C1866       C  0.32609705  0.36411173  0.94743885    -0.09300
C1867       C  0.32993083  0.37539141  0.95726894    -0.17000
C1868       C  0.34353513  0.40400678  0.95854842     0.25200
C1869       C  0.35311164  0.42127526  0.94996661    -0.18600
C1870       C  0.34922250  0.41009170  0.94015686    -0.07500
C1871       C  0.34744464  0.41580867  0.96862089    -0.14000
C1872       C  0.35046357  0.42660589  0.97686636    -0.13700
C1873       C  0.35299860  0.44020835  0.98648245     0.25100
C1874       C  0.33798907  0.45362041  0.98809651    -0.19100
C1875       C  0.33979090  0.46645562  0.99743418    -0.07600
C1876       C  0.35659385  0.46602588  0.00535188    -0.03700
C1877       C  0.37201739  0.45290564  0.00361856    -0.09000
C1878       C  0.37017717  0.44002891  0.99423208    -0.16600
H1879       H  0.31558260  0.34192155  0.94663209     0.11500
H1880       H  0.32232626  0.36182866  0.96385602     0.10800
H1881       H  0.36363270  0.44346045  0.95085490     0.10700
H1882       H  0.35703269  0.42399989  0.93367477     0.11300
H1883       H  0.32476647  0.45405050  0.98214675     0.11300
H1884       H  0.32799685  0.47676366  0.99846598     0.11300
H1885       H  0.38493327  0.45203651  0.00958892     0.11400
H1886       H  0.38192568  0.42972144  0.99305863     0.10300
C1887       C  0.04968983  0.47924573  0.75445219    -0.03500
C1888       C  0.03670177  0.48615602  0.76217046    -0.09300
C1889       C  0.04953852  0.51276775  0.76626672    -0.17000
C1890       C  0.07559605  0.53280706  0.76278083     0.25200
C1891       C  0.08909611  0.52583605  0.75537785    -0.18600
C1892       C  0.07626303  0.49929944  0.75123689    -0.07500
C1893       C  0.08778968  0.56081630  0.76639339    -0.14000
C1894       C  0.09697062  0.58435291  0.76916809    -0.13700
C1895       C  0.10649465  0.61229083  0.77242671     0.25100
C1896       C  0.10982459  0.63246434  0.76528957    -0.19100
C1897       C  0.11716376  0.65906426  0.76854043    -0.07600
C1898       C  0.12119728  0.66584787  0.77900483    -0.03700
C1899       C  0.11863244  0.64563557  0.78607445    -0.09000
C1900       C  0.11126871  0.61908887  0.78281300    -0.16600
H1901       H  0.01622585  0.47133323  0.76477606     0.11500
H1902       H  0.03882471  0.51789825  0.77198013     0.10800
H1903       H  0.10925314  0.54109477  0.75261904     0.10700
H1904       H  0.08691856  0.49468193  0.74533578     0.11300
H1905       H  0.10612610  0.62745999  0.75722261     0.11300
H1906       H  0.11867557  0.67397860  0.76291897     0.11300
H1907       H  0.12202298  0.65027066  0.79417200     0.11400
H1908       H  0.10884664  0.60374714  0.78841576     0.10300
C1909       C  0.91817136  0.31418988  0.73584524    -0.03500
C1910       C  0.91385351  0.29114761  0.73009047    -0.09300
C1911       C  0.88784067  0.27287428  0.72608423    -0.17000
C1912       C  0.86565386  0.27723016  0.72775144     0.25200
C1913       C  0.86956291  0.29969328  0.73367104    -0.18600
C1914       C  0.89555540  0.31799789  0.73769265    -0.07500
C1915       C  0.83922106  0.25925027  0.72308580    -0.14000
C1916       C  0.81750526  0.24452539  0.71887608    -0.13700
C1917       C  0.79198066  0.22708507  0.71354313     0.25100
C1918       C  0.79052778  0.22921120  0.70289255    -0.19100
C1919       C  0.76605941  0.21201983  0.69766423    -0.07600
C1920       C  0.74252658  0.19241273  0.70300553    -0.03700
C1921       C  0.74408806  0.19059485  0.71372372    -0.09000
C1922       C  0.76862476  0.20775191  0.71893673    -0.16600
H1923       H  0.93071661  0.28756106  0.72846720     0.11500
H1924       H  0.88516820  0.25561086  0.72151813     0.10800
H1925       H  0.85263077  0.30336877  0.73502464     0.10700
H1926       H  0.89805745  0.33552063  0.74203510     0.11300
H1927       H  0.80836754  0.24410914  0.69861101     0.11300
H1928       H  0.76548627  0.21419267  0.68943780     0.11300
H1929       H  0.72649021  0.17552106  0.71805548     0.11400
H1930       H  0.76942134  0.20579036  0.72716978     0.10300
C1931       C  0.01405343  0.35780902  0.70524400    -0.03500
C1932       C  0.00883912  0.33062561  0.70410220    -0.09300
C1933       C  0.00464061  0.31867797  0.69442288    -0.17000
C1934       C  0.00551318  0.33354972  0.68568166     0.25200
C1935       C  0.01099801  0.36073183  0.68667784    -0.18600
C1936       C  0.01527421  0.37281680  0.69639869    -0.07500
C1937       C  0.00083699  0.32064363  0.67576350    -0.14000
C1938       C  0.99726312  0.30845374  0.66778219    -0.13700
C1939       C  0.99422132  0.29318559  0.65851677     0.25100
C1940       C  0.97763064  0.29309077  0.65048061    -0.19100
C1941       C  0.97583122  0.27919802  0.64134775    -0.07600
C1942       C  0.99077238  0.26537221  0.64012401    -0.03700
C1943       C  0.00675482  0.26496105  0.64835130    -0.09000
C1944       C  0.00843358  0.27873042  0.65746636    -0.16600
H1945       H  0.00780948  0.31842872  0.71070275     0.11500
H1946       H  0.00054895  0.29768349  0.69376705     0.10800
H1947       H  0.01181661  0.37250054  0.67996659     0.10700
H1948       H  0.01917411  0.39373999  0.69699753     0.11300
H1949       H  0.96646456  0.30414385  0.65120257     0.11300
H1950       H  0.96354276  0.28004826  0.63512709     0.11300
H1951       H  0.01820786  0.25418857  0.64768613     0.11400
H1952       H  0.02116124  0.27844590  0.66364057     0.10300
C1953       C  0.00275424  0.35192375  0.77241693    -0.03500
C1954       C  0.01378364  0.33438931  0.77366501    -0.09300
C1955       C  0.01721275  0.32629388  0.78340752    -0.17000
C1956       C  0.00970174  0.33548975  0.79209414     0.25200
C1957       C  0.99862346  0.35289213  0.79099037    -0.18600
C1958       C  0.99520794  0.36112418  0.78120135    -0.07500
C1959       C  0.01331978  0.32662842  0.80205236    -0.14000
C1960       C  0.01668549  0.31752200  0.80996186    -0.13700
C1961       C  0.02018953  0.30488988  0.81903022     0.25100
C1962       C  0.03770461  0.32106871  0.82690138    -0.19100
C1963       C  0.04024464  0.30861585  0.83583154    -0.07600
C1964       C  0.02516223  0.27982629  0.83700024    -0.03700
C1965       C  0.00827656  0.26373277  0.82891518    -0.09000
C1966       C  0.00583225  0.27619123  0.82000075    -0.16600
H1967       H  0.01991987  0.32695842  0.76710793     0.11500
H1968       H  0.02576675  0.31279625  0.78416141     0.10800
H1969       H  0.99265789  0.36007635  0.79766967     0.10700
H1970       H  0.98664616  0.37461162  0.78051100     0.11300
H1971       H  0.04901728  0.34329527  0.82621239     0.11300
H1972       H  0.05319218  0.32152070  0.84196800     0.11300
H1973       H  0.99667205  0.24150691  0.82955930     0.11400
H1974       H  0.99242516  0.26344115  0.81392152     0.10300
C1975       C  0.07560166  0.27181979  0.86754058    -0.03500
C1976       C  0.07699567  0.27540229  0.87824038    -0.09300
C1977       C  0.10182075  0.28434664  0.88346871    -0.17000
C1978       C  0.12567603  0.28986444  0.87811396     0.25200
C1979       C  0.12446335  0.28612782  0.86748682    -0.18600
C1980       C  0.09966909  0.27716700  0.86224411    -0.07500
C1981       C  0.15139362  0.29948151  0.88349344    -0.14000
C1982       C  0.17307174  0.30751682  0.88786987    -0.13700
C1983       C  0.19925148  0.31682321  0.89286074     0.25100
C1984       C  0.20278475  0.29933139  0.89958675    -0.19100
C1985       C  0.22856434  0.30766374  0.90394307    -0.07600
C1986       C  0.25130615  0.33370105  0.90164691    -0.03700
C1987       C  0.24733877  0.35144146  0.89509712    -0.09000
C1988       C  0.22154363  0.34302895  0.89073558    -0.16600
H1989       H  0.05903875  0.27184169  0.88255204     0.11500
H1990       H  0.10244108  0.28716618  0.89169173     0.10800
H1991       H  0.14269981  0.29018219  0.86324320     0.10700
H1992       H  0.09930525  0.27422829  0.85403839     0.11300
H1993       H  0.18574065  0.27901194  0.90130733     0.11300
H1994       H  0.23081208  0.29341441  0.90891436     0.11300
H1995       H  0.26434270  0.37152531  0.89309088     0.11400
H1996       H  0.21913721  0.35678500  0.88553856     0.10300
C1997       C  0.09866677  0.40727043  0.74197598    -0.03500
C1998       C  0.10451560  0.38774203  0.74632954    -0.09300
C1999       C  0.13034551  0.39595880  0.75062069    -0.17000
C2000       C  0.15073186  0.42379933  0.75067599     0.25200
C2001       C  0.14535013  0.44329372  0.74614747    -0.18600
C2002       C  0.11958377  0.43511821  0.74180519    -0.07500
C2003       C  0.17678955  0.43243909  0.75566014    -0.14000
C2004       C  0.19832725  0.43958789  0.76001922    -0.13700
C2005       C  0.22391465  0.44788733  0.76531068     0.25100
C2006       C  0.22540321  0.45094449  0.77597401    -0.19100
C2007       C  0.25006977  0.45855132  0.78111476    -0.07600
C2008       C  0.27369870  0.46319121  0.77567119    -0.03700
C2009       C  0.27202786  0.46026785  0.76494422    -0.09000
C2010       C  0.24734586  0.45268237  0.75982111    -0.16600
H2011       H  0.08894887  0.36616891  0.74661321     0.11500
H2012       H  0.13422085  0.38063158  0.75407952     0.10800
H2013       H  0.16089308  0.46490046  0.74614457     0.10700
H2014       H  0.11577257  0.45075715  0.73861667     0.11300
H2015       H  0.20748543  0.44741550  0.78032157     0.11300
H2016       H  0.25070045  0.46105331  0.78934966     0.11300
H2017       H  0.28965997  0.46334826  0.76052303     0.11400
H2018       H  0.24649623  0.45035491  0.75157006     0.10300
C2019       C  0.32385834  0.45356242  0.80602036    -0.03500
C2020       C  0.30724148  0.42509400  0.80775320    -0.09300
C2021       C  0.30908361  0.41334912  0.81699399    -0.17000
C2022       C  0.32746046  0.42994338  0.82459379     0.25200
C2023       C  0.34348399  0.45835265  0.82302971    -0.18600
C2024       C  0.34168536  0.47009494  0.81383184    -0.07500
C2025       C  0.33038517  0.41806985  0.83396587    -0.14000
C2026       C  0.33405430  0.40992074  0.84204074    -0.13700
C2027       C  0.33899818  0.40226639  0.85201083     0.25100
C2028       C  0.33918126  0.41724923  0.86056960    -0.19100
C2029       C  0.34351586  0.40989874  0.87031839    -0.07600
C2030       C  0.34783733  0.38741735  0.87167202    -0.03700
C2031       C  0.34811629  0.37272343  0.86299911    -0.09000
C2032       C  0.34365866  0.38009455  0.85322034    -0.16600
H2033       H  0.29349536  0.41183729  0.80185247     0.11500
H2034       H  0.29652827  0.39133140  0.81814284     0.10800
H2035       H  0.35762546  0.47142289  0.82888532     0.10700
H2036       H  0.35441410  0.49212908  0.81279019     0.11300
H2037       H  0.33575919  0.43454924  0.85971813     0.11300
H2038       H  0.34328401  0.42174235  0.87680507     0.11300
H2039       H  0.35127527  0.35525816  0.86378805     0.11400
H2040       H  0.34364471  0.36841463  0.84663361     0.10300
C2041       C  0.60731307  0.59207118  0.72393551    -0.03500
C2042       C  0.59157019  0.58690836  0.71496408    -0.09300
C2043       C  0.57727949  0.56037171  0.71083613    -0.17000
C2044       C  0.57853388  0.53858607  0.71557397     0.25200
C2045       C  0.59479182  0.54365772  0.72431347    -0.18600
C2046       C  0.60909113  0.57016421  0.72846220    -0.07500
C2047       C  0.56218449  0.51087203  0.71175000    -0.14000
C2048       C  0.54763686  0.48760662  0.70874855    -0.13700
C2049       C  0.52946556  0.45988535  0.70524223     0.25100
C2050       C  0.50990979  0.44017920  0.71190731    -0.19100
C2051       C  0.49163325  0.41355292  0.70842245    -0.07600
C2052       C  0.49256630  0.40632299  0.69818587    -0.03700
C2053       C  0.51252545  0.42615762  0.69158224    -0.09000
C2054       C  0.53083428  0.45270930  0.69508873    -0.16600
H2055       H  0.58962368  0.60318973  0.71128949     0.11500
H2056       H  0.56475766  0.55673586  0.70407448     0.10800
H2057       H  0.59594006  0.52699335  0.72806095     0.10700
H2058       H  0.62093177  0.57330783  0.73537592     0.11300
H2059       H  0.50854931  0.44549779  0.71977692     0.11300
H2060       H  0.47629829  0.39887191  0.71364056     0.11300
H2061       H  0.51389858  0.42112128  0.68367660     0.11400
H2062       H  0.54585740  0.46770516  0.68985532     0.10300
C2063       C  0.56501044  0.63484149  0.75455256    -0.03500
C2064       C  0.55798939  0.61555838  0.76254226    -0.09300
C2065       C  0.53084717  0.60070208  0.76612967    -0.17000
C2066       C  0.51045509  0.60503860  0.76181535     0.25200
C2067       C  0.51750158  0.62499524  0.75417989    -0.18600
C2068       C  0.54453293  0.63981029  0.75057846    -0.07500
C2069       C  0.48213104  0.58825026  0.76489246    -0.14000
C2070       C  0.45841445  0.57367580  0.76737933    -0.13700
C2071       C  0.43053442  0.55585311  0.77075975     0.25100
C2072       C  0.41085937  0.53637115  0.76411949    -0.19100
C2073       C  0.38426528  0.51803018  0.76768594    -0.07600
C2074       C  0.37718989  0.51890083  0.77795471    -0.03700
C2075       C  0.39690151  0.53902778  0.78446670    -0.09000
C2076       C  0.42334415  0.55732951  0.78089238    -0.16600
H2077       H  0.57319038  0.61110020  0.76572478     0.11500
H2078       H  0.52562714  0.58533427  0.77205656     0.10800
H2079       H  0.50192330  0.62861497  0.75080305     0.10700
H2080       H  0.54917376  0.65452053  0.74444949     0.11300
H2081       H  0.41622302  0.53500692  0.75625827     0.11300
H2082       H  0.36955807  0.50259258  0.76253752     0.11300
H2083       H  0.39191956  0.54037444  0.79237993     0.11400
H2084       H  0.43833947  0.57233958  0.78609261     0.10300
C2085       C  0.81912219  0.80933446  0.86655278    -0.03500
C2086       C  0.84396809  0.82828764  0.87127182    -0.09300
C2087       C  0.86268365  0.82012156  0.87447245    -0.17000
C2088       C  0.85670603  0.79290250  0.87305214     0.25200
C2089       C  0.83177928  0.77383849  0.86854922    -0.18600
C2090       C  0.81314935  0.78195725  0.86532488    -0.07500
C2091       C  0.87595858  0.78432740  0.87619464    -0.14000
C2092       C  0.89123898  0.77613934  0.87886601    -0.13700
C2093       C  0.90855438  0.76557115  0.88242311     0.25100
C2094       C  0.90793445  0.74298282  0.87759685    -0.19100
C2095       C  0.92321272  0.73150901  0.88154642    -0.07600
C2096       C  0.93930011  0.74245474  0.89041022    -0.03700
C2097       C  0.94043222  0.76572183  0.89499348    -0.09000
C2098       C  0.92515283  0.77710988  0.89103931    -0.16600
H2099       H  0.84920246  0.84953453  0.87223875     0.11500
H2100       H  0.88188587  0.83506931  0.87796615     0.10800
H2101       H  0.82679403  0.75268834  0.86746912     0.10700
H2102       H  0.79403317  0.76680965  0.86183985     0.11300
H2103       H  0.89513967  0.73382925  0.87092663     0.11300
H2104       H  0.92173182  0.71355996  0.87784665     0.11300
H2105       H  0.95247864  0.77467870  0.90183483     0.11400
H2106       H  0.92580124  0.79455486  0.89485740     0.10300
C2107       C  0.75812883  0.80625526  0.83823297    -0.03500
C2108       C  0.77506080  0.80665081  0.83020067    -0.09300
C2109       C  0.76372873  0.79429396  0.82080788    -0.17000
C2110       C  0.73529719  0.78134230  0.81926184     0.25200
C2111       C  0.71834041  0.78168191  0.82708165    -0.18600
C2112       C  0.72968267  0.79413867  0.83650266    -0.07500
C2113       C  0.72370692  0.76707617  0.80975794    -0.14000
C2114       C  0.71533546  0.75530407  0.80168233    -0.13700
C2115       C  0.70684187  0.74232035  0.79177365     0.25100
C2116       C  0.69288437  0.71355851  0.79084300    -0.19100
C2117       C  0.68523792  0.70124704  0.78115113    -0.07600
C2118       C  0.69164510  0.71757762  0.77225058    -0.03700
C2119       C  0.70563611  0.74645461  0.77330987    -0.09000
C2120       C  0.71310468  0.75864797  0.78296903    -0.16600
H2121       H  0.79707721  0.81616066  0.83125026     0.11500
H2122       H  0.77712173  0.79438328  0.81481179     0.10800
H2123       H  0.69630853  0.77180099  0.82598109     0.10700
H2124       H  0.71612199  0.79334841  0.84255962     0.11300
H2125       H  0.68798987  0.70067099  0.79759226     0.11300
H2126       H  0.67450069  0.67899286  0.78062054     0.11300
H2127       H  0.71073898  0.75972183  0.76666476     0.11400
H2128       H  0.72389733  0.78090773  0.78355978     0.10300
C2129       C  0.40731652  0.99099992  0.75336480    -0.03500
C2130       C  0.42568155  0.00251925  0.76161124    -0.09300
C2131       C  0.43954644  0.98950763  0.76547139    -0.17000
C2132       C  0.43513094  0.96475205  0.76119969     0.25200
C2133       C  0.41607553  0.95256096  0.75327926    -0.18600
C2134       C  0.40224253  0.96555322  0.74938684    -0.07500
C2135       C  0.45136647  0.95281838  0.76453763    -0.14000
C2136       C  0.46641803  0.94440881  0.76721999    -0.13700
C2137       C  0.48594305  0.93650941  0.77060094     0.25100
C2138       C  0.48005184  0.90916481  0.76984174    -0.19100
C2139       C  0.49894485  0.90168725  0.77344475    -0.07600
C2140       C  0.52381677  0.92147759  0.77791331    -0.03700
C2141       C  0.52974620  0.94896306  0.77843242    -0.09000
C2142       C  0.51096216  0.95639634  0.77479641    -0.16600
H2143       H  0.43016874  0.02211290  0.76482051     0.11500
H2144       H  0.45429122  0.99915811  0.77159584     0.10800
H2145       H  0.41246974  0.93339896  0.74991573     0.10700
H2146       H  0.38819031  0.95605712  0.74305974     0.11300
H2147       H  0.46076860  0.89360599  0.76658744     0.11300
H2148       H  0.49382157  0.88035798  0.77300531     0.11300
H2149       H  0.54890799  0.96469438  0.78170270     0.11400
H2150       H  0.51584610  0.97764616  0.77535771     0.10300
C2151       C  0.63716699  0.75640215  0.74126035    -0.03500
C2152       C  0.65601642  0.78053930  0.74644759    -0.09300
C2153       C  0.64763533  0.79819186  0.75059607    -0.17000
C2154       C  0.62031503  0.79210290  0.74964082     0.25200
C2155       C  0.60158699  0.76857446  0.74424858    -0.18600
C2156       C  0.60991867  0.75088812  0.74008080    -0.07500
C2157       C  0.61131894  0.80938371  0.75453979    -0.14000
C2158       C  0.60397018  0.82357073  0.75895398    -0.13700
C2159       C  0.59548815  0.84042470  0.76448891     0.25100
C2160       C  0.56814520  0.83454725  0.76410535    -0.19100
C2161       C  0.55990536  0.85069356  0.76956945    -0.07600
C2162       C  0.57892033  0.87307581  0.77552374    -0.03700
C2163       C  0.60638147  0.87882735  0.77582821    -0.09000
C2164       C  0.61455071  0.86262563  0.77037557    -0.16600
H2165       H  0.67709056  0.78543772  0.74755193     0.11500
H2166       H  0.66236720  0.81630992  0.75474678     0.10800
H2167       H  0.58038455  0.76356969  0.74345027     0.10700
H2168       H  0.59477993  0.73246479  0.73619744     0.11300
H2169       H  0.55311754  0.81736540  0.75961861     0.11300
H2170       H  0.53856020  0.84538893  0.76924881     0.11300
H2171       H  0.62171095  0.89611872  0.78017560     0.11400
H2172       H  0.63576849  0.86746138  0.77073947     0.10300
C2173       C  0.78615230  0.84765436  0.61117809    -0.03500
C2174       C  0.78753516  0.86764235  0.61802824    -0.09300
C2175       C  0.78029008  0.88701321  0.61486482    -0.17000
C2176       C  0.77154666  0.88672519  0.60481138     0.25200
C2177       C  0.77081875  0.86738738  0.59785184    -0.18600
C2178       C  0.77817741  0.84801914  0.60099909    -0.07500
C2179       C  0.76234449  0.90556710  0.60177908    -0.14000
C2180       C  0.75377822  0.92065734  0.59927264    -0.13700
C2181       C  0.74270044  0.93771806  0.59594881     0.25100
C2182       C  0.71806894  0.93399576  0.60012313    -0.19100
C2183       C  0.70606763  0.94886565  0.59625724    -0.07600
C2184       C  0.71850950  0.96757726  0.58810509    -0.03700
C2185       C  0.74383946  0.97193568  0.58424686    -0.09000
C2186       C  0.75579724  0.95710722  0.58813551    -0.16600
H2187       H  0.79384527  0.86799834  0.62589344     0.11500
H2188       H  0.78101717  0.90188042  0.62031522     0.10800
H2189       H  0.76401605  0.86691024  0.59005085     0.10700
H2190       H  0.77664349  0.83270495  0.59560074     0.11300
H2191       H  0.70771417  0.91901669  0.60617787     0.11300
H2192       H  0.68654336  0.94488043  0.59936301     0.11300
H2193       H  0.75404842  0.98620489  0.57798100     0.11400
H2194       H  0.77485648  0.96021627  0.58485066     0.10300
C2195       C  0.76777525  0.77590448  0.63751660    -0.03500
C2196       C  0.78176451  0.76962585  0.64503900    -0.09300
C2197       C  0.76919634  0.75838485  0.65448113    -0.17000
C2198       C  0.74248454  0.75316541  0.65649888     0.25200
C2199       C  0.72820381  0.75871218  0.64896270    -0.18600
C2200       C  0.74069101  0.76991814  0.63954488    -0.07500
C2201       C  0.73006424  0.74328889  0.66642200    -0.14000
C2202       C  0.71971985  0.73634812  0.67480696    -0.13700
C2203       C  0.70810713  0.72965784  0.68497520     0.25100
C2204       C  0.68087178  0.70869054  0.68653142    -0.19100
C2205       C  0.66970968  0.70255849  0.69643539    -0.07600
C2206       C  0.68570867  0.71732054  0.70491812    -0.03700
C2207       C  0.71302608  0.73841366  0.70323872    -0.09000
C2208       C  0.72407453  0.74452886  0.69335294    -0.16600
H2209       H  0.80269422  0.77423944  0.64375297     0.11500
H2210       H  0.78050723  0.75427545  0.66027531     0.10800
H2211       H  0.70753874  0.75475213  0.65041902     0.10700
H2212       H  0.72920529  0.77411867  0.63386032     0.11300
H2213       H  0.66828600  0.69706670  0.68009970     0.11300
H2214       H  0.64869043  0.68610251  0.69745744     0.11300
H2215       H  0.72595412  0.75020320  0.70957167     0.11400
H2216       H  0.74513088  0.76086814  0.69224778     0.10300
C2217       C  0.88813077  0.54734338  0.69867198    -0.03500
C2218       C  0.89677421  0.54849072  0.70885720    -0.09300
C2219       C  0.90491884  0.53000507  0.71237703    -0.17000
C2220       C  0.90433187  0.51003304  0.70578219     0.25200
C2221       C  0.89476156  0.50811476  0.69576008    -0.18600
C2222       C  0.88671704  0.52659384  0.69222469    -0.07500
C2223       C  0.91475940  0.49239920  0.70910712    -0.14000
C2224       C  0.92446003  0.47841080  0.71179587    -0.13700
C2225       C  0.93681129  0.46266605  0.71534349     0.25100
C2226       C  0.92647140  0.44620980  0.72410305    -0.19100
C2227       C  0.93963105  0.43265985  0.72808579    -0.07600
C2228       C  0.96353614  0.43544366  0.72340179    -0.03700
C2229       C  0.97323924  0.45125007  0.71437479    -0.09000
C2230       C  0.95994882  0.46477572  0.71038344    -0.16600
H2231       H  0.89832614  0.56440542  0.71396936     0.11500
H2232       H  0.91231109  0.53173143  0.72014234     0.10800
H2233       H  0.89410285  0.49270037  0.69058561     0.10700
H2234       H  0.87986656  0.52501495  0.68438770     0.11300
H2235       H  0.90860052  0.44438148  0.72801296     0.11300
H2236       H  0.93150558  0.42068368  0.73503804     0.11300
H2237       H  0.99154368  0.45385652  0.71057675     0.11400
H2238       H  0.96813592  0.47743708  0.70358110     0.10300
C2239       C  0.84633253  0.60868459  0.70172372    -0.03500
C2240       C  0.82231063  0.58968953  0.70700054    -0.09300
C2241       C  0.80631690  0.59849045  0.71226902    -0.17000
C2242       C  0.81400476  0.62641902  0.71237854     0.25200
C2243       C  0.83788904  0.64547710  0.70718054    -0.18600
C2244       C  0.85391408  0.63673042  0.70190942    -0.07500
C2245       C  0.79729680  0.63547100  0.71772935    -0.14000
C2246       C  0.78312440  0.64300411  0.72206909    -0.13700
C2247       C  0.76573426  0.65188229  0.72700181     0.25100
C2248       C  0.76900073  0.67780599  0.72477135    -0.19100
C2249       C  0.75125657  0.68585610  0.72909452    -0.07600
C2250       C  0.72977463  0.66805598  0.73571465    -0.03700
C2251       C  0.72707955  0.64229218  0.73810773    -0.09000
C2252       C  0.74491925  0.63432168  0.73379188    -0.16600
H2253       H  0.81558635  0.56791782  0.70691472     0.11500
H2254       H  0.78785697  0.58346592  0.71621031     0.10800
H2255       H  0.84416285  0.66715864  0.70719950     0.10700
H2256       H  0.87241811  0.65199206  0.69807201     0.11300
H2257       H  0.78494873  0.69161996  0.71953164     0.11300
H2258       H  0.75389379  0.70574376  0.72699512     0.11300
H2259       H  0.71078714  0.62800570  0.74312310     0.11400
H2260       H  0.74211521  0.61419919  0.73560357     0.10300
C2261       C  0.78469088  0.10289840  0.89073353    -0.03500
C2262       C  0.79027595  0.11864626  0.88170268    -0.09300
C2263       C  0.81716806  0.13359716  0.87784271    -0.17000
C2264       C  0.83885814  0.13300127  0.88292347     0.25200
C2265       C  0.83337782  0.11684122  0.89174633    -0.18600
C2266       C  0.80657816  0.10191585  0.89561707    -0.07500
C2267       C  0.86682414  0.14946813  0.87928506    -0.14000
C2268       C  0.89034094  0.16345937  0.87639492    -0.13700
C2269       C  0.91825991  0.18035165  0.87277194     0.25100
C2270       C  0.92528031  0.17681315  0.86283191    -0.19100
C2271       C  0.95187685  0.19399700  0.85907993    -0.07600
C2272       C  0.97194944  0.21499860  0.86522506    -0.03700
C2273       C  0.96501411  0.21794956  0.87530770    -0.09000
C2274       C  0.93829525  0.20079126  0.87903967    -0.16600
H2275       H  0.77403514  0.12005920  0.87778060     0.11500
H2276       H  0.82110998  0.14601872  0.87100093     0.10800
H2277       H  0.84992137  0.11615375  0.89575207     0.10700
H2278       H  0.80315408  0.09012611  0.90259388     0.11300
H2279       H  0.91005294  0.16104623  0.85791057     0.11300
H2280       H  0.95669668  0.19114044  0.85130816     0.11300
H2281       H  0.97995311  0.23414917  0.88016098     0.11400
H2282       H  0.93313789  0.20378862  0.88674308     0.10300
C2283       C  0.74122223  0.14448348  0.92080810    -0.03500
C2284       C  0.75492902  0.14944190  0.93026864    -0.09300
C2285       C  0.76925214  0.17613679  0.93430325    -0.17000
C2286       C  0.77008235  0.19827386  0.92896535     0.25200
C2287       C  0.75589478  0.19341176  0.91970191    -0.18600
C2288       C  0.74156213  0.16679650  0.91566300    -0.07500
C2289       C  0.78629313  0.22609831  0.93274649    -0.14000
C2290       C  0.80048151  0.24955054  0.93565078    -0.13700
C2291       C  0.81815273  0.27748493  0.93910075     0.25100
C2292       C  0.81776038  0.28425332  0.94938341    -0.19100
C2293       C  0.83594283  0.31085983  0.95287383    -0.07600
C2294       C  0.85494771  0.33118827  0.94614633    -0.03700
C2295       C  0.85463692  0.32445562  0.93575692    -0.09000
C2296       C  0.83640794  0.29777491  0.93227637    -0.16600
H2297       H  0.75521870  0.13284506  0.93442539     0.11500
H2298       H  0.78014167  0.17958634  0.94148159     0.10800
H2299       H  0.75635760  0.21031090  0.91548152     0.10700
H2300       H  0.73136797  0.16386949  0.90835754     0.11300
H2301       H  0.80371572  0.26885461  0.95474127     0.11300
H2302       H  0.83539521  0.31545862  0.96089922     0.11300
H2303       H  0.86915624  0.33947340  0.93041513     0.11400
H2304       H  0.83696035  0.29282088  0.92429095     0.10300
C2305       C  0.71061073  0.97966495  0.90369885    -0.03500
C2306       C  0.73776198  0.98488469  0.90486595    -0.09300
C2307       C  0.74555873  0.96644785  0.90102867    -0.17000
C2308       C  0.72639417  0.94244772  0.89597861     0.25200
C2309       C  0.69920583  0.93676140  0.89498515    -0.18600
C2310       C  0.69135982  0.95516141  0.89880381    -0.07500
C2311       C  0.73480908  0.92424397  0.89145598    -0.14000
C2312       C  0.74167363  0.90935171  0.88727879    -0.13700
C2313       C  0.74954179  0.89185139  0.88184190     0.25100
C2314       C  0.73019515  0.87001397  0.87588799    -0.19100
C2315       C  0.73791758  0.85367259  0.87028960    -0.07600
C2316       C  0.76521225  0.85889733  0.87050455    -0.03700
C2317       C  0.78444989  0.88069893  0.87662657    -0.09000
C2318       C  0.77665736  0.89701087  0.88223427    -0.16600
H2319       H  0.75319896  0.00356360  0.90852142     0.11500
H2320       H  0.76668100  0.97118611  0.90183728     0.10800
H2321       H  0.68414505  0.91832265  0.89108201     0.10700
H2322       H  0.67033836  0.95046029  0.89771104     0.11300
H2323       H  0.70914833  0.86570205  0.87552016     0.11300
H2324       H  0.72240277  0.83679076  0.86583095     0.11300
H2325       H  0.80565967  0.88555094  0.87690907     0.11400
H2326       H  0.79190642  0.91388820  0.88678103     0.10300
C2327       C  0.58558042  0.92924823  0.80668175    -0.03500
C2328       C  0.56872475  0.92875373  0.81476009    -0.09300
C2329       C  0.58028399  0.94207720  0.82400576    -0.17000
C2330       C  0.60886209  0.95621006  0.82531535     0.25200
C2331       C  0.62576057  0.95628984  0.81739259    -0.18600
C2332       C  0.61420576  0.94281525  0.80814870    -0.07500
C2333       C  0.62073366  0.97087609  0.83473182    -0.14000
C2334       C  0.62985016  0.98271440  0.84274981    -0.13700
C2335       C  0.63944162  0.99544687  0.85264773     0.25100
C2336       C  0.65580697  0.02411550  0.85358886    -0.19100
C2337       C  0.66447231  0.03616646  0.86328598    -0.07600
C2338       C  0.65677745  0.01967631  0.87217892    -0.03700
C2339       C  0.64049033  0.99088207  0.87109532    -0.09000
C2340       C  0.63194893  0.97895131  0.86143881    -0.16600
H2341       H  0.54659629  0.91826621  0.81387372     0.11500
H2342       H  0.56693847  0.94167341  0.83008334     0.10800
H2343       H  0.64789379  0.96711106  0.81830073     0.10700
H2344       H  0.62767634  0.94377176  0.80202595     0.11300
H2345       H  0.66174836  0.03714166  0.84684744     0.11300
H2346       H  0.67698825  0.05835889  0.86382531     0.11300
H2347       H  0.63423954  0.97745390  0.87772505     0.11400
H2348       H  0.61932473  0.95676275  0.86084146     0.10300
C2349       C  0.38202507  0.30022947  0.92080732    -0.03500
C2350       C  0.37041466  0.28282330  0.92936275    -0.09300
C2351       C  0.38185576  0.26728837  0.93307768    -0.17000
C2352       C  0.40507395  0.26904680  0.92832776     0.25200
C2353       C  0.41746863  0.28723319  0.92012736    -0.18600
C2354       C  0.40611014  0.30274602  0.91640537    -0.07500
C2355       C  0.41524021  0.25106138  0.93141466    -0.14000
C2356       C  0.42303431  0.23517680  0.93364108    -0.13700
C2357       C  0.43115886  0.21532938  0.93637057     0.25100
C2358       C  0.45868741  0.22191373  0.93555723    -0.19100
C2359       C  0.46658878  0.20297348  0.93874060    -0.07600
C2360       C  0.44701601  0.17732053  0.94283590    -0.03700
C2361       C  0.41929386  0.17058677  0.94328923    -0.09000
C2362       C  0.41144589  0.18944369  0.94008122    -0.16600
H2363       H  0.35186823  0.28032733  0.93291646     0.11500
H2364       H  0.37208972  0.25327729  0.93944426     0.10800
H2365       H  0.43545010  0.28880854  0.91639718     0.10700
H2366       H  0.41566561  0.31595799  0.90982760     0.11300
H2367       H  0.47411905  0.24187178  0.93265826     0.11300
H2368       H  0.48806954  0.20873948  0.93836582     0.11300
H2369       H  0.40372675  0.15082257  0.94628849     0.11400
H2370       H  0.39007324  0.18401225  0.94066913     0.10300
C2371       C  0.61942204  0.06971276  0.90811828    -0.03500
C2372       C  0.59517794  0.05044898  0.91321136    -0.09300
C2373       C  0.57705173  0.05835368  0.91727106    -0.17000
C2374       C  0.58279698  0.08561694  0.91631596     0.25200
C2375       C  0.60649560  0.10476115  0.91105618    -0.18600
C2376       C  0.62463955  0.09691234  0.90697947    -0.07500
C2377       C  0.56495732  0.09417466  0.92104083    -0.14000
C2378       C  0.55049455  0.10150655  0.92525586    -0.13700
C2379       C  0.53346584  0.11018542  0.93055292     0.25100
C2380       C  0.53673748  0.11545128  0.94108971    -0.19100
C2381       C  0.51992921  0.12330233  0.94629729    -0.07600
C2382       C  0.49953623  0.12607254  0.94104326    -0.03700
C2383       C  0.49661476  0.12105024  0.93042482    -0.09000
C2384       C  0.51341535  0.11313961  0.92523429    -0.16600
H2385       H  0.59050937  0.02937687  0.91429062     0.11500
H2386       H  0.55883286  0.04331884  0.92132506     0.10800
H2387       H  0.61125218  0.12594529  0.91026957     0.10700
H2388       H  0.64311813  0.11235079  0.90318371     0.11300
H2389       H  0.55224034  0.11337527  0.94530510     0.11300
H2390       H  0.52298857  0.12736039  0.95442768     0.11300
H2391       H  0.48092486  0.12266368  0.92616041     0.11400
H2392       H  0.51060336  0.10910735  0.91709203     0.10300
C2393       C  0.55674367  0.88108988  0.03296838    -0.03500
C2394       C  0.56522957  0.88188379  0.04315828    -0.09300
C2395       C  0.57367753  0.86350550  0.04654107    -0.17000
C2396       C  0.57353085  0.84399435  0.03980910     0.25200
C2397       C  0.56416516  0.84246469  0.02977480    -0.18600
C2398       C  0.55583333  0.86082938  0.02637852    -0.07500
C2399       C  0.58401427  0.82629251  0.04300292    -0.14000
C2400       C  0.59356415  0.81199455  0.04546375    -0.13700
C2401       C  0.60564047  0.79565106  0.04860710     0.25100
C2402       C  0.63177038  0.80211017  0.04506447    -0.19100
C2403       C  0.64444655  0.78773202  0.04879142    -0.07600
C2404       C  0.63120633  0.76679917  0.05618320    -0.03700
C2405       C  0.60446786  0.75971609  0.05936197    -0.09000
C2406       C  0.59182130  0.77403080  0.05559916    -0.16600
H2407       H  0.56635022  0.89738332  0.04837630     0.11500
H2408       H  0.58090101  0.86492422  0.05432910     0.10800
H2409       H  0.56382874  0.82742370  0.02449982     0.10700
H2410       H  0.54907623  0.85949928  0.01852749     0.11300
H2411       H  0.64267907  0.81877796  0.03963967     0.11300
H2412       H  0.66506359  0.79382138  0.04622196     0.11300
H2413       H  0.59361975  0.74365632  0.06500827     0.11400
H2414       H  0.57156113  0.76873175  0.05837114     0.10300
C2415       C  0.57017237  0.94857691  0.00540537    -0.03500
C2416       C  0.57014272  0.93228787  0.99722095    -0.09300
C2417       C  0.58361419  0.94444931  0.98802990    -0.17000
C2418       C  0.59739788  0.97309370  0.98684122     0.25200
C2419       C  0.59712971  0.98949959  0.99487221    -0.18600
C2420       C  0.58353893  0.97732746  0.00408855    -0.07500
C2421       C  0.61196288  0.98536258  0.97740162    -0.14000
C2422       C  0.62355198  0.99399028  0.96927584    -0.13700
C2423       C  0.63606319  0.00241627  0.95925219     0.25100
C2424       C  0.66462503  0.01913797  0.95814791    -0.19100
C2425       C  0.67653600  0.02662679  0.94835788    -0.07600
C2426       C  0.66001284  0.01739141  0.93952617    -0.03700
C2427       C  0.63132621  0.00062676  0.94075954    -0.09000
C2428       C  0.61952260  0.99324955  0.95051561    -0.16600
H2429       H  0.55975947  0.91008748  0.99795183     0.11500
H2430       H  0.58349351  0.93148334  0.98187286     0.10800
H2431       H  0.60769215  0.01169251  0.99405978     0.10700
H2432       H  0.58413859  0.99041169  0.01027992     0.11300
H2433       H  0.67769525  0.02631604  0.96484532     0.11300
H2434       H  0.69863204  0.03956589  0.94770659     0.11300
H2435       H  0.61787574  0.99319022  0.93417152     0.11400
H2436       H  0.59742815  0.98026889  0.95123783     0.10300
C2437       C  0.82197230  0.07106106  0.36698556    -0.03500
C2438       C  0.81465018  0.09159622  0.36767399    -0.09300
C2439       C  0.83379625  0.11813543  0.37086411    -0.17000
C2440       C  0.86059629  0.12462420  0.37336544     0.25200
C2441       C  0.86796033  0.10415298  0.37290677    -0.18600
C2442       C  0.84868983  0.07743093  0.36977431    -0.07500
C2443       C  0.88034013  0.15240075  0.37629491    -0.14000
C2444       C  0.89545704  0.17600081  0.37878440    -0.13700
C2445       C  0.91182471  0.20412638  0.38213367     0.25100
C2446       C  0.93185149  0.21092078  0.38968549    -0.19100
C2447       C  0.94578980  0.23755904  0.39370003    -0.07600
C2448       C  0.93989567  0.25784499  0.39020772    -0.03700
C2449       C  0.92053853  0.25112343  0.38230636    -0.09000
C2450       C  0.90653883  0.22441210  0.37833158    -0.16600
H2451       H  0.79412450  0.08712145  0.36564116     0.11500
H2452       H  0.82778172  0.13370989  0.37125234     0.10800
H2453       H  0.88863501  0.10892197  0.37484133     0.10700
H2454       H  0.85484872  0.06199818  0.36922576     0.11300
H2455       H  0.93613685  0.19541800  0.39268835     0.11300
H2456       H  0.96062743  0.24203977  0.39974310     0.11300
H2457       H  0.91540084  0.26617114  0.37947728     0.11400
H2458       H  0.89102662  0.21938398  0.37250299     0.10300
C2459       C  0.70978758  0.17674500  0.44334934    -0.03500
C2460       C  0.71404718  0.20146738  0.43888163    -0.09300
C2461       C  0.74024930  0.22125549  0.43538456    -0.17000
C2462       C  0.76243967  0.21653520  0.43628886     0.25200
C2463       C  0.75816121  0.19168853  0.44045228    -0.18600
C2464       C  0.73209567  0.17194661  0.44392243    -0.07500
C2465       C  0.78980783  0.23713451  0.43317832    -0.14000
C2466       C  0.81338668  0.25305688  0.43083675    -0.13700
C2467       C  0.84184933  0.27037546  0.42796436     0.25100
C2468       C  0.86201404  0.26539590  0.43207613    -0.19100
C2469       C  0.88922348  0.28035507  0.42858055    -0.07600
C2470       C  0.89660654  0.30040930  0.42085178    -0.03700
C2471       C  0.87640704  0.30608644  0.41710081    -0.09000
C2472       C  0.84925575  0.29116313  0.42062900    -0.16600
H2473       H  0.69737824  0.20585957  0.43838203     0.11500
H2474       H  0.74328555  0.24039349  0.43214097     0.10800
H2475       H  0.77507537  0.18767944  0.44112412     0.10700
H2476       H  0.72942942  0.15291488  0.44712445     0.11300
H2477       H  0.85653593  0.24934509  0.43775795     0.11300
H2478       H  0.90415645  0.27533114  0.43159463     0.11300
H2479       H  0.88135147  0.32142099  0.41117105     0.11400
H2480       H  0.83388267  0.29527117  0.41740129     0.10300
C2481       C  0.04840406  0.63328751  0.25509968    -0.03500
C2482       C  0.03834269  0.61801104  0.26423397    -0.09300
C2483       C  0.05038634  0.60332147  0.26828709    -0.17000
C2484       C  0.07271495  0.60371096  0.26331021     0.25200
C2485       C  0.08338924  0.61952941  0.25440495    -0.18600
C2486       C  0.07140298  0.63419628  0.25033927    -0.07500
C2487       C  0.08396118  0.58704902  0.26706387    -0.14000
C2488       C  0.09285937  0.57244955  0.26993650    -0.13700
C2489       C  0.10274604  0.55427929  0.27327060     0.25100
C2490       C  0.10583805  0.53720323  0.26622478    -0.19100
C2491       C  0.11427874  0.51875218  0.26951592    -0.07600
C2492       C  0.11968540  0.51700902  0.27993550    -0.03700
C2493       C  0.11706431  0.53467564  0.28692285    -0.09000
C2494       C  0.10864362  0.55309903  0.28361726    -0.16600
H2495       H  0.02062958  0.61669125  0.26808111     0.11500
H2496       H  0.04188070  0.59116801  0.27518228     0.10800
H2497       H  0.10063990  0.62006128  0.25046438     0.10700
H2498       H  0.07973700  0.64565888  0.24329828     0.11300
H2499       H  0.10130049  0.53783247  0.25819366     0.11300
H2500       H  0.11575666  0.50527517  0.26395837     0.11300
H2501       H  0.12142625  0.53417319  0.29497722     0.11400
H2502       H  0.10645283  0.56621397  0.28915563     0.10300
C2503       C  0.10619019  0.44491908  0.30563973    -0.03500
C2504       C  0.12101923  0.44049250  0.31337278    -0.09300
C2505       C  0.10805519  0.42751439  0.32257404    -0.17000
C2506       C  0.08010686  0.41859905  0.32409610     0.25200
C2507       C  0.06504339  0.42202408  0.31627791    -0.18600
C2508       C  0.07795492  0.43507297  0.30712714    -0.07500
C2509       C  0.06719381  0.40771964  0.33387743    -0.14000
C2510       C  0.05628349  0.40048006  0.34216347    -0.13700
C2511       C  0.04403398  0.39392614  0.35223524     0.25100
C2512       C  0.01581851  0.37561783  0.35349673    -0.19100
C2513       C  0.00407201  0.36978521  0.36331154    -0.07600
C2514       C  0.02043682  0.38224543  0.37199757    -0.03700
C2515       C  0.04873368  0.40077456  0.37060575    -0.09000
C2516       C  0.06038137  0.40653831  0.36081444    -0.16600
H2517       H  0.14279651  0.44794782  0.31244464     0.11500
H2518       H  0.11996697  0.42506892  0.32858607     0.10800
H2519       H  0.04342676  0.41519509  0.31734746     0.10700
H2520       H  0.06592373  0.43779002  0.30124021     0.11300
H2521       H  0.00291170  0.36584536  0.34690318     0.11300
H2522       H  0.98226444  0.35540026  0.36409857     0.11300
H2523       H  0.06199590  0.41074376  0.37709363     0.11400
H2524       H  0.08219489  0.42086458  0.35993893     0.10300
C2525       C  0.30269593  0.10467870  0.38957210    -0.03500
C2526       C  0.27946410  0.10346653  0.39423419    -0.09300
C2527       C  0.26864587  0.11953919  0.39056205    -0.17000
C2528       C  0.28073885  0.13705024  0.38215515     0.25200
C2529       C  0.30318724  0.13764572  0.37720006    -0.18600
C2530       C  0.31407499  0.12154153  0.38086215    -0.07500
C2531       C  0.27085472  0.15526440  0.37897073    -0.14000
C2532       C  0.26294799  0.17102887  0.37663407    -0.13700
C2533       C  0.25424132  0.19043351  0.37380965     0.25100
C2534       C  0.27286958  0.21532466  0.36909130    -0.19100
C2535       C  0.26437860  0.23376763  0.36596094    -0.07600
C2536       C  0.23703243  0.22761531  0.36747126    -0.03700
C2537       C  0.21861594  0.20293641  0.37249983    -0.09000
C2538       C  0.22717003  0.18443464  0.37562358    -0.16600
H2539       H  0.27013587  0.09076854  0.40094744     0.11500
H2540       H  0.25126094  0.11883537  0.39445960     0.10800
H2541       H  0.31273779  0.15110100  0.37067509     0.10700
H2542       H  0.33200489  0.12309720  0.37710883     0.11300
H2543       H  0.29391660  0.22035134  0.36771411     0.11300
H2544       H  0.27917680  0.25279695  0.36226360     0.11300
H2545       H  0.19741715  0.19755421  0.37371051     0.11400
H2546       H  0.21256721  0.16527736  0.37930103     0.10300
C2547       C  0.18495578  0.27942648  0.37074154    -0.03500
C2548       C  0.18938925  0.30646492  0.37025232    -0.09300
C2549       C  0.17224988  0.31367045  0.37557066    -0.17000
C2550       C  0.15041823  0.29407980  0.38151778     0.25200
C2551       C  0.14597926  0.26720403  0.38215846    -0.18600
C2552       C  0.16309435  0.25992278  0.37682624    -0.07500
C2553       C  0.13240986  0.30153381  0.38680312    -0.14000
C2554       C  0.11732562  0.30816911  0.39096255    -0.13700
C2555       C  0.09905984  0.31636166  0.39556928     0.25100
C2556       C  0.07491502  0.29688573  0.40051403    -0.19100
C2557       C  0.05646800  0.30451109  0.40446625    -0.07600
C2558       C  0.06182198  0.33180010  0.40350535    -0.03700
C2559       C  0.08648435  0.35136316  0.39873175    -0.09000
C2560       C  0.10491273  0.34369176  0.39480660    -0.16600
H2561       H  0.20624785  0.32216100  0.36580470     0.11500
H2562       H  0.17600424  0.33455657  0.37501555     0.10800
H2563       H  0.12912706  0.25179229  0.38670261     0.10700
H2564       H  0.15883483  0.23886803  0.37729454     0.11300
H2565       H  0.07006905  0.27564827  0.40114972     0.11300
H2566       H  0.03766071  0.28884819  0.40801529     0.11300
H2567       H  0.09128871  0.37251708  0.39781247     0.11400
H2568       H  0.12348459  0.35898797  0.39100222     0.10300
C2569       C  0.40876967  0.47805802  0.25453288    -0.03500
C2570       C  0.42522757  0.48315178  0.26329389    -0.09300
C2571       C  0.44132654  0.51001276  0.26700273    -0.17000
C2572       C  0.44114479  0.53212112  0.26203982     0.25200
C2573       C  0.42387730  0.52707944  0.25362642    -0.18600
C2574       C  0.40776994  0.50030438  0.24991592    -0.07500
C2575       C  0.45991673  0.56008750  0.26512366    -0.14000
C2576       C  0.47663129  0.58349908  0.26735566    -0.13700
C2577       C  0.49758408  0.61110392  0.27002066     0.25100
C2578       C  0.49178714  0.63268984  0.27003918    -0.19100
C2579       C  0.51195039  0.65918299  0.27303936    -0.07600
C2580       C  0.53811178  0.66434188  0.27612359    -0.03700
C2581       C  0.54394070  0.64268823  0.27580901    -0.09000
C2582       C  0.52384389  0.61630967  0.27277265    -0.16600
H2583       H  0.42656306  0.46658910  0.26702995     0.11500
H2584       H  0.45459196  0.51363690  0.27353248     0.10800
H2585       H  0.42351741  0.54397506  0.24971757     0.10700
H2586       H  0.39538401  0.49724226  0.24316552     0.11300
H2587       H  0.47156942  0.62895469  0.26789616     0.11300
H2588       H  0.50682879  0.67540201  0.27327225     0.11300
H2589       H  0.56401769  0.64613577  0.27800829     0.11400
H2590       H  0.52868199  0.59987289  0.27271181     0.10300
C2591       C  0.63740327  0.54771039  0.19954855    -0.03500
C2592       C  0.63014374  0.54739976  0.20988397    -0.09300
C2593       C  0.60364881  0.52836472  0.21335137    -0.17000
C2594       C  0.58413918  0.50929128  0.20656289     0.25200
C2595       C  0.59153657  0.50882734  0.19636240    -0.18600
C2596       C  0.61793528  0.52783614  0.19288279    -0.07500
C2597       C  0.55617486  0.49120129  0.20989245    -0.14000
C2598       C  0.53250739  0.47707840  0.21257892    -0.13700
C2599       C  0.50428286  0.46148656  0.21600266     0.25100
C2600       C  0.48439013  0.46691749  0.21191217    -0.19100
C2601       C  0.45751895  0.45340554  0.21581099    -0.07600
C2602       C  0.45018259  0.43435060  0.22390698    -0.03700
C2603       C  0.47011319  0.42835789  0.22771950    -0.09000
C2604       C  0.49691266  0.44183183  0.22379272    -0.16600
H2605       H  0.64457443  0.56253686  0.21517827     0.11500
H2606       H  0.59817749  0.52897810  0.22126666     0.10800
H2607       H  0.57671354  0.49415099  0.19103634     0.10700
H2608       H  0.62302390  0.52727024  0.18491660     0.11300
H2609       H  0.48981701  0.48208243  0.20589222     0.11300
H2610       H  0.44276025  0.45862502  0.21272193     0.11300
H2611       H  0.46522651  0.41379463  0.23391820     0.11400
H2612       H  0.51209179  0.43738974  0.22702407     0.10300
C2613       C  0.16817808  0.46220119  0.27530886    -0.03500
C2614       C  0.18732902  0.45670143  0.28016556    -0.09300
C2615       C  0.20338368  0.44883158  0.27444788    -0.17000
C2616       C  0.20058803  0.44624699  0.26378419     0.25200
C2617       C  0.18179891  0.45195643  0.25886563    -0.18600
C2618       C  0.16576644  0.45991738  0.26457098    -0.07500
C2619       C  0.21680586  0.43745191  0.25796697    -0.14000
C2620       C  0.23077022  0.42989843  0.25349565    -0.13700
C2621       C  0.24824170  0.42090375  0.24872936     0.25100
C2622       C  0.27109651  0.43931492  0.24289325    -0.19100
C2623       C  0.28936218  0.43132324  0.23903098    -0.07600
C2624       C  0.28510249  0.40471940  0.24095600    -0.03700
C2625       C  0.26151859  0.38605914  0.24653054    -0.09000
C2626       C  0.24330720  0.39411158  0.25038703    -0.16600
H2627       H  0.18995242  0.45856877  0.28839019     0.11500
H2628       H  0.21790077  0.44460078  0.27836706     0.10800
H2629       H  0.17934768  0.45001115  0.25063199     0.10700
H2630       H  0.15100011  0.46365723  0.26059863     0.11300
H2631       H  0.27520774  0.46011495  0.24153926     0.11300
H2632       H  0.30723004  0.44625182  0.23478824     0.11300
H2633       H  0.25753203  0.36544100  0.24819048     0.11400
H2634       H  0.22574422  0.37962887  0.25488505     0.10300
C2635       C  0.32455017  0.35120604  0.27222465    -0.03500
C2636       C  0.34051434  0.36233616  0.28109981    -0.09300
C2637       C  0.32825798  0.35532344  0.29082464    -0.17000
C2638       C  0.29992247  0.33717640  0.29180902     0.25200
C2639       C  0.28391152  0.32607512  0.28303441    -0.18600
C2640       C  0.29606829  0.33300606  0.27333306    -0.07500
C2641       C  0.28722378  0.32926225  0.30178473    -0.14000
C2642       C  0.27597320  0.32116936  0.30997562    -0.13700
C2643       C  0.26245145  0.30975578  0.31962147     0.25100
C2644       C  0.24918673  0.28126411  0.32120444    -0.19100
C2645       C  0.23740541  0.27004598  0.33071257    -0.07600
C2646       C  0.23863433  0.28718004  0.33877924    -0.03700
C2647       C  0.25122707  0.31570989  0.33705002    -0.09000
C2648       C  0.26317688  0.32694175  0.32752920    -0.16600
H2649       H  0.36242685  0.37647509  0.28053405     0.11500
H2650       H  0.34088743  0.36399421  0.29756877     0.10800
H2651       H  0.26199162  0.31196232  0.28368808     0.10700
H2652       H  0.28306639  0.32412016  0.26669377     0.11300
H2653       H  0.24837549  0.26773778  0.31513863     0.11300
H2654       H  0.22760999  0.24798296  0.33181697     0.11300
H2655       H  0.25266379  0.32936439  0.34316640     0.11400
H2656       H  0.27340277  0.34902490  0.32639977     0.10300
C2657       C  0.15006897  0.73842359  0.03519031    -0.03500
C2658       C  0.17558803  0.74334890  0.03898620    -0.09300
C2659       C  0.19557496  0.76988228  0.04205145    -0.17000
C2660       C  0.19020762  0.79172938  0.04141660     0.25200
C2661       C  0.16453581  0.78674360  0.03796804    -0.18600
C2662       C  0.14463432  0.76035312  0.03488581    -0.07500
C2663       C  0.21091214  0.81939927  0.04413559    -0.14000
C2664       C  0.22691746  0.84304876  0.04634414    -0.13700
C2665       C  0.24436615  0.87139022  0.04933108     0.25100
C2666       C  0.24115287  0.89228805  0.04478173    -0.19100
C2667       C  0.25591915  0.91932623  0.04845369    -0.07600
C2668       C  0.27399754  0.92578194  0.05678423    -0.03700
C2669       C  0.27799226  0.90484417  0.06098144    -0.09000
C2670       C  0.26327262  0.87789894  0.05728891    -0.16600
H2671       H  0.18042599  0.72691690  0.03923932     0.11500
H2672       H  0.21532293  0.77343849  0.04474184     0.10800
H2673       H  0.16001355  0.80338565  0.03751826     0.10700
H2674       H  0.12505925  0.75713336  0.03213700     0.11300
H2675       H  0.22655587  0.88751437  0.03861960     0.11300
H2676       H  0.25224914  0.93485866  0.04507378     0.11300
H2677       H  0.29180228  0.90904662  0.06737321     0.11400
H2678       H  0.26599344  0.86196516  0.06087280     0.10300
C2679       C  0.04321121  0.84589944  0.10979069    -0.03500
C2680       C  0.04762884  0.87111952  0.10578062    -0.09300
C2681       C  0.07391770  0.89118770  0.10244651    -0.17000
C2682       C  0.09597840  0.88615907  0.10301245     0.25200
C2683       C  0.09147274  0.86079190  0.10671724    -0.18600
C2684       C  0.06535310  0.84084749  0.11008273    -0.07500
C2685       C  0.12339536  0.90684835  0.09994463    -0.14000
C2686       C  0.14695236  0.92264664  0.09750819    -0.13700
C2687       C  0.17531538  0.93962351  0.09440544     0.25100
C2688       C  0.19594626  0.93645103  0.09915709    -0.19100
C2689       C  0.22303632  0.95082437  0.09549161    -0.07600
C2690       C  0.22987247  0.96850634  0.08696278    -0.03700
C2691       C  0.20917658  0.97238856  0.08251051    -0.09000
C2692       C  0.18214163  0.95803914  0.08620081    -0.16600
H2693       H  0.03098378  0.87560600  0.10552668     0.11500
H2694       H  0.07710538  0.91071311  0.09956799     0.10800
H2695       H  0.10826788  0.85653351  0.10712515     0.10700
H2696       H  0.06247728  0.82148008  0.11300419     0.11300
H2697       H  0.19093948  0.92223258  0.10550700     0.11300
H2698       H  0.23836169  0.94725398  0.09908855     0.11300
H2699       H  0.21365574  0.98586664  0.07595658     0.11400
H2700       H  0.16640763  0.96070927  0.08245317     0.10300
C2701       C  0.51151011  0.93928128  0.03613825    -0.03500
C2702       C  0.51338061  0.94247460  0.04685678    -0.09300
C2703       C  0.49681869  0.95057442  0.05212867    -0.17000
C2704       C  0.47804209  0.95552406  0.04679681     0.25200
C2705       C  0.47586130  0.95214247  0.03614923    -0.18600
C2706       C  0.49242851  0.94411620  0.03086506    -0.07500
C2707       C  0.46116537  0.96425920  0.05219534    -0.14000
C2708       C  0.44690215  0.97172095  0.05649897    -0.13700
C2709       C  0.42946792  0.98062534  0.06135851     0.25100
C2710       C  0.43690721  0.00849267  0.06126099    -0.19100
C2711       C  0.41934431  0.01693053  0.06548079    -0.07600
C2712       C  0.39401616  0.99761749  0.06990980    -0.03700
C2713       C  0.38703816  0.96973069  0.07018137    -0.09000
C2714       C  0.40458063  0.96134322  0.06592257    -0.16600
H2715       H  0.52799662  0.93918484  0.05114543     0.11500
H2716       H  0.49878677  0.95313107  0.06036305     0.10800
H2717       H  0.46136632  0.95575970  0.03191582     0.10700
H2718       H  0.49011169  0.94143447  0.02264639     0.11300
H2719       H  0.45606459  0.02365661  0.05775470     0.11300
H2720       H  0.42536172  0.03852108  0.06507805     0.11300
H2721       H  0.36763083  0.95422312  0.07340941     0.11400
H2722       H  0.39847407  0.93970014  0.06603274     0.10300
C2723       C  0.44000989  0.11569762  0.97167553    -0.03500
C2724       C  0.41238804  0.10753630  0.97385765    -0.09300
C2725       C  0.40124827  0.09760918  0.98355797    -0.17000
C2726       C  0.41738188  0.09546099  0.99125912     0.25200
C2727       C  0.44472512  0.10287837  0.98912224    -0.18600
C2728       C  0.45597122  0.11288501  0.97938475    -0.07500
C2729       C  0.40580757  0.08622641  0.00136337    -0.14000
C2730       C  0.39517282  0.07893437  0.00970728    -0.13700
C2731       C  0.38221166  0.07070010  0.01965874     0.25100
C2732       C  0.39789365  0.08138706  0.02853575    -0.19100
C2733       C  0.38549183  0.07345128  0.03818814    -0.07600
C2734       C  0.35708747  0.05461864  0.03915530    -0.03700
C2735       C  0.34141965  0.04413519  0.03017887    -0.09000
C2736       C  0.35391300  0.05214482  0.02050895    -0.16600
H2737       H  0.39936362  0.10894014  0.96805883     0.11500
H2738       H  0.38005147  0.09183992  0.98507866     0.10800
H2739       H  0.45745482  0.10132362  0.99501606     0.10700
H2740       H  0.47733265  0.11916940  0.97798167     0.11300
H2741       H  0.41976666  0.09581859  0.02800393     0.11300
H2742       H  0.39826589  0.08199071  0.04490295     0.11300
H2743       H  0.31956503  0.02964690  0.03062228     0.11400
H2744       H  0.34150496  0.04378894  0.01369564     0.10300
C2745       C  0.48813307  0.14605226  0.19996200    -0.03500
C2746       C  0.48735805  0.13740982  0.21014153    -0.09300
C2747       C  0.50587047  0.12911368  0.21348176    -0.17000
C2748       C  0.52554451  0.12958147  0.20672958     0.25200
C2749       C  0.52698862  0.13902892  0.19668249    -0.18600
C2750       C  0.50842051  0.14714431  0.19331945    -0.07500
C2751       C  0.54362552  0.11954350  0.20996773    -0.14000
C2752       C  0.55830346  0.11056861  0.21262284    -0.13700
C2753       C  0.57531363  0.09948263  0.21609542     0.25100
C2754       C  0.57375556  0.07632335  0.21137170    -0.19100
C2755       C  0.58892979  0.06457424  0.21520960    -0.07600
C2756       C  0.60587100  0.07579889  0.22386168    -0.03700
C2757       C  0.60792583  0.09960944  0.22833309    -0.09000
C2758       C  0.59276768  0.11127638  0.22448996    -0.16600
H2759       H  0.47181577  0.13610766  0.21538429     0.11500
H2760       H  0.50448022  0.12182075  0.22128090     0.10800
H2761       H  0.54212604  0.13963123  0.19138773     0.10700
H2762       H  0.50964471  0.15393637  0.18545533     0.11300
H2763       H  0.56034078  0.06696785  0.20486559     0.11300
H2764       H  0.58669288  0.04619877  0.21160464     0.11300
H2765       H  0.62065491  0.10882885  0.23500620     0.11400
H2766       H  0.59421843  0.12918763  0.22822372     0.10300
C2767       C  0.41801600  0.12998543  0.17330916    -0.03500
C2768       C  0.41337775  0.14445504  0.16547172    -0.09300
C2769       C  0.40142539  0.13145060  0.15619598    -0.17000
C2770       C  0.39376251  0.10378387  0.15467546     0.25200
C2771       C  0.39766374  0.08909266  0.16254492    -0.18600
C2772       C  0.40969563  0.10205904  0.17178087    -0.07500
C2773       C  0.38318360  0.09077206  0.14490502    -0.14000
C2774       C  0.37576837  0.08010060  0.13660621    -0.13700
C2775       C  0.36869476  0.06844556  0.12646053     0.25100
C2776       C  0.34874085  0.04074363  0.12503707    -0.19100
C2777       C  0.34224160  0.02966227  0.11513915    -0.07600
C2778       C  0.35562622  0.04617495  0.10652600    -0.03700
C2779       C  0.37575967  0.07393941  0.10808145    -0.09000
C2780       C  0.38220668  0.08491284  0.11795072    -0.16600
H2781       H  0.41975626  0.16602393  0.16640511     0.11500
H2782       H  0.39863155  0.14309218  0.15015363     0.10800
H2783       H  0.39181185  0.06768558  0.16148251     0.10700
H2784       H  0.41265561  0.09029034  0.17772247     0.11300
H2785       H  0.33819374  0.02774572  0.13156121     0.11300
H2786       H  0.32660179  0.00824746  0.11423001     0.11300
H2787       H  0.38650853  0.08729524  0.10166599     0.11400
H2788       H  0.39776897  0.10634327  0.11893892     0.10300
C2789       C  0.43076118  0.19235753  0.20306917    -0.03500
C2790       C  0.42922578  0.19204470  0.21384804    -0.09300
C2791       C  0.42152237  0.20906887  0.21901635    -0.17000
C2792       C  0.41523528  0.22673433  0.21352129     0.25200
C2793       C  0.41679930  0.22725447  0.20280857    -0.18600
C2794       C  0.42449397  0.21028268  0.19763061    -0.07500
C2795       C  0.40705667  0.24422484  0.21881581    -0.14000
C2796       C  0.39996775  0.25898165  0.22297922    -0.13700
C2797       C  0.39116619  0.27679274  0.22761556     0.25100
C2798       C  0.36509912  0.27309298  0.22543878    -0.19100
C2799       C  0.35690543  0.29096104  0.22953802    -0.07600
C2800       C  0.37468860  0.31299064  0.23589708    -0.03700
C2801       C  0.40068889  0.31624685  0.23819250    -0.09000
C2802       C  0.40882206  0.29830777  0.23408849    -0.16600
H2803       H  0.43352401  0.17829308  0.21829127     0.11500
H2804       H  0.42034060  0.20833943  0.22730071     0.10800
H2805       H  0.41208482  0.24083571  0.19843655     0.10700
H2806       H  0.42582832  0.21143563  0.18935682     0.11300
H2807       H  0.35121194  0.25661380  0.22042898     0.11300
H2808       H  0.33686857  0.28788849  0.22751353     0.11300
H2809       H  0.41502804  0.33303067  0.24298679     0.11400
H2810       H  0.42906494  0.30150149  0.23583910     0.10300
C2811       C  0.07541203  0.32532767  0.08816260    -0.03500
C2812       C  0.09168028  0.33605495  0.09699188    -0.09300
C2813       C  0.10697548  0.32444315  0.10076055    -0.17000
C2814       C  0.10609048  0.30190973  0.09579703     0.25200
C2815       C  0.08907701  0.29039031  0.08728517    -0.18600
C2816       C  0.07381549  0.30194962  0.08349924    -0.07500
C2817       C  0.12397891  0.29177166  0.09898364    -0.14000
C2818       C  0.14018135  0.28450522  0.10130605    -0.13700
C2819       C  0.16083334  0.27757322  0.10405802     0.25100
C2820       C  0.15543215  0.25038083  0.10337745    -0.19100
C2821       C  0.17540693  0.24378367  0.10639178    -0.07600
C2822       C  0.20092486  0.26432469  0.11016680    -0.03700
C2823       C  0.20637212  0.29167544  0.11055485    -0.09000
C2824       C  0.18646490  0.29821667  0.10752690    -0.16600
H2825       H  0.09349597  0.35408977  0.10073926     0.11500
H2826       H  0.12013657  0.33356717  0.10734828     0.10800
H2827       H  0.08824609  0.27297405  0.08337576     0.10700
H2828       H  0.06151227  0.29312454  0.07670006     0.11300
H2829       H  0.13568509  0.23425435  0.10067239     0.11300
H2830       H  0.17059570  0.22252780  0.10609603     0.11300
H2831       H  0.22596399  0.30796164  0.11330744     0.11400
H2832       H  0.19096064  0.31936245  0.10801106     0.10300
C2833       C  0.25395025  0.21379094  0.10779943    -0.03500
C2834       C  0.23340100  0.19036636  0.10273157    -0.09300
C2835       C  0.23996014  0.17260263  0.09750726    -0.17000
C2836       C  0.26713219  0.17793057  0.09724857     0.25200
C2837       C  0.28769436  0.20114761  0.10227070    -0.18600
C2838       C  0.28118802  0.21892511  0.10750052    -0.07500
C2839       C  0.27399031  0.15954586  0.09193759    -0.14000
C2840       C  0.28048592  0.14442756  0.08773506    -0.13700
C2841       C  0.28913289  0.12654742  0.08312484     0.25100
C2842       C  0.31601256  0.13172102  0.08458409    -0.19100
C2843       C  0.32416832  0.11371995  0.08062089    -0.07600
C2844       C  0.30553613  0.09014882  0.07510776    -0.03700
C2845       C  0.27871370  0.08547539  0.07346990    -0.09000
C2846       C  0.27059784  0.10351430  0.07745876    -0.16600
H2847       H  0.21218522  0.18555336  0.10292306     0.11500
H2848       H  0.22379759  0.15464548  0.09370201     0.10800
H2849       H  0.30879487  0.20554751  0.10213277     0.10700
H2850       H  0.29757239  0.23691855  0.11119670     0.11300
H2851       H  0.33057684  0.14944564  0.08895360     0.11300
H2852       H  0.34490647  0.11796461  0.08207997     0.11300
H2853       H  0.26374207  0.06749101  0.06932940     0.11400
H2854       H  0.24972535  0.09921811  0.07627467     0.10300
C2855       C  0.26473845  0.27357404  0.13826641    -0.03500
C2856       C  0.24776753  0.27375257  0.14616486    -0.09300
C2857       C  0.25902995  0.28665446  0.15546599    -0.17000
C2858       C  0.28741779  0.29957277  0.15704898     0.25200
C2859       C  0.30448723  0.29897243  0.14933346    -0.18600
C2860       C  0.29319812  0.28595433  0.13998971    -0.07500
C2861       C  0.29868318  0.31356242  0.16658681    -0.14000
C2862       C  0.30606559  0.32450527  0.17482840    -0.13700
C2863       C  0.31277021  0.33603459  0.18497502     0.25100
C2864       C  0.33148250  0.36407511  0.18642345    -0.19100
C2865       C  0.33773273  0.37499896  0.19633734    -0.07600
C2866       C  0.32529284  0.35797690  0.20492571    -0.03700
C2867       C  0.30632547  0.32987144  0.20334418    -0.09000
C2868       C  0.30014852  0.31905061  0.19345910    -0.16600
H2869       H  0.22574045  0.26406676  0.14510518     0.11500
H2870       H  0.24558893  0.28680501  0.16139384     0.10800
H2871       H  0.32649890  0.30886046  0.15048415     0.10700
H2872       H  0.30674033  0.28628437  0.13401200     0.11300
H2873       H  0.34128002  0.37744781  0.17990782     0.11300
H2874       H  0.35243031  0.39669876  0.19727564     0.11300
H2875       H  0.29634571  0.31612619  0.20974722     0.11400
H2876       H  0.28552825  0.29734116  0.19243716     0.10300
C2877       C  0.07256395  0.80985298  0.58713834    -0.03500
C2878       C  0.07041643  0.83150679  0.58256672    -0.09300
C2879       C  0.08474431  0.85813066  0.58656268    -0.17000
C2880       C  0.10135687  0.86357926  0.59520561     0.25200
C2881       C  0.10268831  0.84199205  0.60009089    -0.18600
C2882       C  0.08835685  0.81528585  0.59610309    -0.07500
C2883       C  0.11818568  0.89153915  0.59867277    -0.14000
C2884       C  0.13307826  0.91507660  0.60129102    -0.13700
C2885       C  0.15149000  0.94295135  0.60453242     0.25100
C2886       C  0.15125928  0.95029000  0.61473975    -0.19100
C2887       C  0.16998127  0.97683011  0.61807855    -0.07600
C2888       C  0.18936008  0.99649229  0.61126974    -0.03700
C2889       C  0.18898886  0.98921718  0.60094715    -0.09000
C2890       C  0.17020037  0.96255586  0.59761473    -0.16600
H2891       H  0.05843755  0.82813436  0.57567494     0.11500
H2892       H  0.08349263  0.87463201  0.58272428     0.10800
H2893       H  0.11544921  0.84594834  0.60680281     0.10700
H2894       H  0.09050503  0.79916459  0.59981376     0.11300
H2895       H  0.13686044  0.93539068  0.62015394     0.11300
H2896       H  0.16947788  0.98193487  0.62604705     0.11300
H2897       H  0.20376214  0.00381131  0.59555749     0.11400
H2898       H  0.17059380  0.95709403  0.58968241     0.10300
C2899       C  0.30669197  0.89593175  0.53488916    -0.03500
C2900       C  0.30115441  0.87018128  0.53873247    -0.09300
C2901       C  0.27439606  0.85052303  0.54180094    -0.17000
C2902       C  0.25293056  0.85644909  0.54113631     0.25200
C2903       C  0.25855174  0.88235393  0.53762114    -0.18600
C2904       C  0.28514274  0.90189816  0.53452429    -0.07500
C2905       C  0.22503016  0.83609797  0.54389805    -0.14000
C2906       C  0.20131007  0.82018364  0.54614876    -0.13700
C2907       C  0.17295921  0.80235031  0.54918376     0.25100
C2908       C  0.15176239  0.80480223  0.54453265    -0.19100
C2909       C  0.12462540  0.78923088  0.54812117    -0.07600
C2910       C  0.11830358  0.77103815  0.55646556    -0.03700
C2911       C  0.13962141  0.76798195  0.56080963    -0.09000
C2912       C  0.16665752  0.78350719  0.55720530    -0.16600
H2913       H  0.31727441  0.86494531  0.53902965     0.11500
H2914       H  0.27037641  0.83058418  0.54453428     0.10800
H2915       H  0.24226414  0.88733769  0.53713413     0.10700
H2916       H  0.28883251  0.92165957  0.53171409     0.11300
H2917       H  0.15632123  0.81931270  0.53831686     0.11300
H2918       H  0.10882913  0.79223070  0.54462052     0.11300
H2919       H  0.13559906  0.75418557  0.56722660     0.11400
H2920       H  0.18278551  0.78134340  0.56087529     0.10300
C2921       C  0.82902841  0.78751137  0.60736097    -0.03500
C2922       C  0.82146143  0.75958312  0.60640990    -0.09300
C2923       C  0.83849317  0.75194810  0.60122586    -0.17000
C2924       C  0.86340092  0.77203994  0.59690433     0.25200
C2925       C  0.87105207  0.79987162  0.59777555    -0.18600
C2926       C  0.85401680  0.80755061  0.60293657    -0.07500
C2927       C  0.88116939  0.76412507  0.59166843    -0.14000
C2928       C  0.89614418  0.75746460  0.58741218    -0.13700
C2929       C  0.91433058  0.74946818  0.58255944     0.25100
C2930       C  0.93685689  0.76851552  0.57672333    -0.19100
C2931       C  0.95526545  0.76119142  0.57247491    -0.07600
C2932       C  0.95147341  0.73461467  0.57399427    -0.03700
C2933       C  0.92834975  0.71541158  0.57966044    -0.09000
C2934       C  0.91000818  0.72279557  0.58390391    -0.16600
H2935       H  0.80224558  0.74360678  0.60959960     0.11500
H2936       H  0.83222769  0.73032991  0.60060461     0.10800
H2937       H  0.89027748  0.81567284  0.59451486     0.10700
H2938       H  0.86066104  0.82923085  0.60363149     0.11300
H2939       H  0.94050766  0.78924058  0.57560885     0.11300
H2940       H  0.97284284  0.77657161  0.56822810     0.11300
H2941       H  0.92478820  0.69482972  0.58106825     0.11400
H2942       H  0.89272438  0.70782219  0.58839549     0.10300
C2943       C  0.99415655  0.68343740  0.60510416    -0.03500
C2944       C  0.96542435  0.66785358  0.60646684    -0.09300
C2945       C  0.95393175  0.66037334  0.61626413    -0.17000
C2946       C  0.97084067  0.66824379  0.62490922     0.25200
C2947       C  0.99946438  0.68382003  0.62367678    -0.18600
C2948       C  0.01106557  0.69143398  0.61384567    -0.07500
C2949       C  0.95856814  0.65972351  0.63496129    -0.14000
C2950       C  0.94694570  0.65113309  0.64308202    -0.13700
C2951       C  0.93209522  0.63912998  0.65249533     0.25100
C2952       C  0.93279925  0.65584446  0.66058706    -0.19100
C2953       C  0.91873334  0.64394091  0.66975230    -0.07600
C2954       C  0.90392276  0.61514818  0.67096138    -0.03700
C2955       C  0.90298606  0.59855938  0.66272889    -0.09000
C2956       C  0.91691551  0.61046334  0.65357907    -0.16600
H2957       H  0.95170553  0.66144696  0.59994992     0.11500
H2958       H  0.93178074  0.64832125  0.61708919     0.10800
H2959       H  0.01281239  0.69000326  0.63030291     0.10700
H2960       H  0.03321804  0.70344561  0.61308944     0.11300
H2961       H  0.94444112  0.67804979  0.65985522     0.11300
H2962       H  0.92005872  0.65722297  0.67599361     0.11300
H2963       H  0.89154007  0.57633792  0.66339384     0.11400
H2964       H  0.91603382  0.59726931  0.64737034     0.10300
C2965       C  0.74469667  0.66250260  0.42235531    -0.03500
C2966       C  0.74055198  0.63694277  0.41889906    -0.09300
C2967       C  0.75633325  0.62603254  0.42277417    -0.17000
C2968       C  0.77652543  0.64044454  0.43015023     0.25200
C2969       C  0.78010075  0.66536857  0.43394520    -0.18600
C2970       C  0.76422930  0.67629449  0.43010722    -0.07500
C2971       C  0.79453565  0.63037895  0.43333843    -0.14000
C2972       C  0.81022673  0.62234992  0.43557634    -0.13700
C2973       C  0.82971171  0.61363105  0.43816211     0.25100
C2974       C  0.85583702  0.63292014  0.44172901    -0.19100
C2975       C  0.87450840  0.62454485  0.44461461    -0.07600
C2976       C  0.86735261  0.59669787  0.44396872    -0.03700
C2977       C  0.84138942  0.57753198  0.44007731    -0.09000
C2978       C  0.82263515  0.58595471  0.43722493    -0.16600
H2979       H  0.72569293  0.62575073  0.41295906     0.11500
H2980       H  0.75332967  0.60671753  0.41978497     0.10800
H2981       H  0.79569248  0.67674978  0.43964694     0.10700
H2982       H  0.76810358  0.69609343  0.43288715     0.11300
H2983       H  0.86166898  0.65442131  0.44240868     0.11300
H2984       H  0.89449293  0.63980049  0.44745817     0.11300
H2985       H  0.83530117  0.55594462  0.43956292     0.11400
H2986       H  0.80251320  0.57084721  0.43443879     0.10300
C2987       C  0.93030432  0.60089892  0.47168478    -0.03500
C2988       C  0.95871653  0.61178839  0.47314638    -0.09300
C2989       C  0.97110494  0.62448365  0.48241785    -0.17000
C2990       C  0.95520431  0.62627826  0.49033603     0.25200
C2991       C  0.92681863  0.61469548  0.48903551    -0.18600
C2992       C  0.91445564  0.60209945  0.47980399    -0.07500
C2993       C  0.96769342  0.64044546  0.49974682    -0.14000
C2994       C  0.97582649  0.65183873  0.50788759    -0.13700
C2995       C  0.98286131  0.66405315  0.51794058     0.25100
C2996       C  0.97327038  0.64711746  0.52660894    -0.19100
C2997       C  0.97879781  0.65861911  0.53639805    -0.07600
C2998       C  0.99409060  0.68738918  0.53771663    -0.03700
C2999       C  0.00384667  0.70431196  0.52895107    -0.09000
C3000       C  0.99819402  0.69270173  0.51912815    -0.16600
H3001       H  0.97145915  0.61133159  0.46700775     0.11500
H3002       H  0.99309370  0.63331440  0.48333740     0.10800
H3003       H  0.91425195  0.61576321  0.49511933     0.10700
H3004       H  0.89248508  0.59353582  0.47896672     0.11300
H3005       H  0.96130360  0.62492972  0.52580458     0.11300
H3006       H  0.97112236  0.64489681  0.54293741     0.11300
H3007       H  0.01577240  0.72650503  0.52967844     0.11400
H3008       H  0.00562526  0.70604636  0.51247638     0.10300
C3009       C  0.97200529  0.42340626  0.40714575    -0.03500
C3010       C  0.94542601  0.41903789  0.40519877    -0.09300
C3011       C  0.93754644  0.43760889  0.40877055    -0.17000
C3012       C  0.95608527  0.46087884  0.41431308     0.25200
C3013       C  0.98284620  0.46591194  0.41598657    -0.18600
C3014       C  0.99077866  0.44736502  0.41243308    -0.07500
C3015       C  0.94727721  0.47874888  0.41877814    -0.14000
C3016       C  0.94026328  0.49335531  0.42304730    -0.13700
C3017       C  0.93282978  0.51084443  0.42866628     0.25100
C3018       C  0.95292493  0.53323240  0.43417884    -0.19100
C3019       C  0.94587998  0.54993952  0.43984759    -0.07600
C3020       C  0.91854251  0.54452718  0.44012895    -0.03700
C3021       C  0.89845739  0.52201381  0.43452224    -0.09000
C3022       C  0.90557004  0.50529384  0.42884690    -0.16600
H3023       H  0.93040362  0.40083736  0.40117463     0.11500
H3024       H  0.91677832  0.43344664  0.40742545     0.10800
H3025       H  0.99740355  0.48383941  0.42026822     0.10700
H3026       H  0.01136550  0.45141679  0.41408305     0.11300
H3027       H  0.97407031  0.53777032  0.43410953     0.11300
H3028       H  0.96195465  0.56732980  0.44392715     0.11300
H3029       H  0.87720014  0.51706929  0.43465694     0.11400
H3030       H  0.88976624  0.48792988  0.42465857     0.10300
C3031       C  0.15108527  0.47349625  0.53473139    -0.03500
C3032       C  0.14637798  0.44638775  0.53439084    -0.09300
C3033       C  0.16665625  0.44048302  0.53753470    -0.17000
C3034       C  0.19196016  0.46151642  0.54110119     0.25200
C3035       C  0.19658590  0.48844108  0.54179160    -0.18600
C3036       C  0.17624287  0.49441231  0.53864574    -0.07500
C3037       C  0.21310419  0.45523052  0.54385194    -0.14000
C3038       C  0.22948361  0.44805992  0.54604154    -0.13700
C3039       C  0.24714073  0.43736670  0.54895107     0.25100
C3040       C  0.26531012  0.44898060  0.55716077    -0.19100
C3041       C  0.27990256  0.43654606  0.56082367    -0.07600
C3042       C  0.27643305  0.41217244  0.55634776    -0.03700
C3043       C  0.25924360  0.40150064  0.54774019    -0.09000
C3044       C  0.24464398  0.41398835  0.54409483    -0.16600
H3045       H  0.12705655  0.42975422  0.53157284     0.11500
H3046       H  0.16272767  0.41954308  0.53704503     0.10800
H3047       H  0.21606740  0.50488540  0.54458028     0.10700
H3048       H  0.18053546  0.51548405  0.53893651     0.11300
H3049       H  0.26745221  0.46708107  0.56097669     0.11300
H3050       H  0.29302865  0.44541667  0.56743161     0.11300
H3051       H  0.25605102  0.38278410  0.54411800     0.11400
H3052       H  0.23063263  0.40480771  0.53772899     0.10300
C3053       C  0.04430369  0.64652791  0.56877109    -0.03500
C3054       C  0.07196183  0.65287652  0.56870093    -0.09300
C3055       C  0.07934674  0.63447170  0.56452579    -0.17000
C3056       C  0.05925186  0.60937920  0.56039405     0.25200
C3057       C  0.03162513  0.60258258  0.56065812    -0.18600
C3058       C  0.02419484  0.62097282  0.56479502    -0.07500
C3059       C  0.06702887  0.59099904  0.55562263    -0.14000
C3060       C  0.07353154  0.57585343  0.55144150    -0.13700
C3061       C  0.08134106  0.55791706  0.54632737     0.25100
C3062       C  0.08423149  0.55887501  0.53565392    -0.19100
C3063       C  0.09177062  0.54151635  0.53068784    -0.07600
C3064       C  0.09654261  0.52283480  0.53632033    -0.03700
C3065       C  0.09364086  0.52207857  0.54705208    -0.09000
C3066       C  0.08609873  0.53946447  0.55200205    -0.16600
H3067       H  0.08802454  0.67241299  0.57160057     0.11500
H3068       H  0.10080842  0.64004142  0.56436191     0.10800
H3069       H  0.01584187  0.58325116  0.55749868     0.10700
H3070       H  0.00273738  0.61538584  0.56468651     0.11300
H3071       H  0.08069999  0.57309599  0.53115756     0.11300
H3072       H  0.09415148  0.54293127  0.52244475     0.11300
H3073       H  0.09674684  0.50770537  0.55161957     0.11400
H3074       H  0.08387225  0.53842635  0.56025658     0.10300
C3075       C  0.02258567  0.37977680  0.43941693    -0.03500
C3076       C  0.01433243  0.36238093  0.44806580    -0.09300
C3077       C  0.02185649  0.37342545  0.45793043    -0.17000
C3078       C  0.03760487  0.40197774  0.45928861     0.25200
C3079       C  0.04579944  0.41940845  0.45074157    -0.18600
C3080       C  0.03840523  0.40845206  0.44089418    -0.07500
C3081       C  0.04571835  0.41350224  0.46940650    -0.14000
C3082       C  0.05329775  0.42368966  0.47776147    -0.13700
C3083       C  0.06325967  0.43592464  0.48767470     0.25100
C3084       C  0.07108714  0.46353839  0.48940615    -0.19100
C3085       C  0.08182923  0.47564314  0.49891430    -0.07600
C3086       C  0.08501579  0.46030281  0.50679457    -0.03700
C3087       C  0.07664428  0.43244736  0.50502708    -0.09000
C3088       C  0.06587088  0.42039205  0.49554153    -0.16600
H3089       H  0.00219534  0.34023513  0.44721095     0.11500
H3090       H  0.01544967  0.35971429  0.46448432     0.10800
H3091       H  0.05800084  0.44153867  0.45168296     0.10700
H3092       H  0.04503350  0.42249087  0.43444123     0.11300
H3093       H  0.06925490  0.47579829  0.48337048     0.11300
H3094       H  0.08836243  0.49720358  0.50001119     0.11300
H3095       H  0.07852198  0.42001690  0.51097730     0.11400
H3096       H  0.05984199  0.39898993  0.49431020     0.10300
loop_ 
_geom_bond_atom_site_label_1 
_geom_bond_atom_site_label_2 
_geom_bond_distance 
_geom_bond_site_symmetry_2 
_ccdc_geom_bond_type 
C1            C2   1.411       .  A
C1            C6   1.410       .  A
C1         C3064   1.494       .  S
C2            C3   1.407       .  A
C2            H7   1.083       .  S
C3            C4   1.403       .  A
C3         C3031   1.488       .  S
C4            C5   1.402       .  A
C4            H8   1.084       .  S
C5            C6   1.406       .  A
C5         C3086   1.487       .  S
C6            H9   1.083       .  S
C10          C11   1.411       .  A
C10          C15   1.411       .  A
C10        C3020   1.492       .  S
C11          C12   1.406       .  A
C11          H16   1.083       .  S
C12          C13   1.402       .  A
C12        C2976   1.486       .  S
C13          C14   1.402       .  A
C13          H17   1.084       .  S
C14          C15   1.405       .  A
C14        C2987   1.487       .  S
C15          H18   1.083       .  S
Fe19         O35   2.053       .  S
Fe19         O25   2.069       .  S
Fe19         O32   2.069   1_655  S
Fe19         O24   2.054       .  S
Fe19         O30   1.980   1_655  S
Fe20         O23   2.075       .  S
Fe20         O27   2.081       .  S
Fe20         O31   2.079       .  S
Fe20         O36   2.065       .  S
Fe20         O30   1.979       .  S
Fe21         O39   2.063       .  S
Fe21         O26   2.080       .  S
Fe21         O33   2.084   1_455  S
Fe21         O22   2.079       .  S
Fe21         O30   1.981       .  S
O22          C29   1.269       .  A
O23          C37   1.273       .  A
O24          C29   1.266   1_655  A
O25          C28   1.271       .  A
O26          C38   1.272       .  A
O27          C40   1.269       .  A
C28        C2932   1.494       .  S
C28          O33   1.274       .  A
C29        C2998   1.488   1_455  S
O31          C34   1.273       .  A
O32          C34   1.272       .  A
C34        C3053   1.490       .  S
O35          C40   1.265   1_655  A
O36          C38   1.270       .  A
C37        C2877   1.486       .  S
C37          O39   1.270       .  A
C38        C2910   1.491       .  S
C40        C2943   1.489   1_455  S
C41          C42   1.411       .  A
C41          C46   1.412       .  A
C41        C2833   1.493       .  S
C42          C43   1.405       .  A
C42          H47   1.083       .  S
C43          C44   1.400       .  A
C43        C2822   1.484       .  S
C44          C45   1.401       .  A
C44          H48   1.084       .  S
C45          C46   1.406       .  A
C45        C2855   1.485       .  S
C46          H49   1.083       .  S
C50          C51   1.413       .  A
C50          C55   1.411       .  A
C50        C2789   1.497       .  S
C51          C52   1.409       .  A
C51          H56   1.083       .  S
C52          C53   1.403       .  A
C52        C2745   1.489       .  S
C53          C54   1.403       .  A
C53          H57   1.084       .  S
C54          C55   1.406       .  A
C54        C2767   1.488       .  S
C55          H58   1.083       .  S
Fe59         O75   2.074       .  S
Fe59         O65   2.054       .  S
Fe59         O72   2.056       .  S
Fe59         O64   2.072       .  S
Fe59         O70   1.980       .  S
Fe60         O63   2.059       .  S
Fe60         O67   2.078       .  S
Fe60         O71   2.075   1_565  S
Fe60         O76   2.075       .  S
Fe60         O70   1.978   1_565  S
Fe61         O79   2.079   1_545  S
Fe61         O66   2.067   1_545  S
Fe61         O73   2.080       .  S
Fe61         O62   2.079       .  S
Fe61         O70   1.979       .  S
O62          C69   1.274       .  A
O63          C77   1.269       .  A
O64          C69   1.273       .  A
O65          C68   1.264       .  A
O66          C78   1.270       .  A
O67          C80   1.274   1_565  A
C68        C2734   1.490       .  S
C68          O73   1.269       .  A
C69        C2844   1.491       .  S
O71          C74   1.267       .  A
O72          C74   1.264       .  A
C74        C2778   1.488       .  S
O75          C80   1.273       .  A
O76          C78   1.272       .  A
C77        C2668   1.487       .  S
C77          O79   1.273       .  A
C78        C2690   1.488       .  S
C80        C2712   1.491   1_545  S
Fe81         O97   2.052       .  S
Fe81         O87   2.072       .  S
Fe81         O94   2.072       .  S
Fe81         O86   2.055       .  S
Fe81         O92   1.980       .  S
Fe82         O85   2.078       .  S
Fe82         O89   2.072       .  S
Fe82         O93   2.082       .  S
Fe82         O98   2.061       .  S
Fe82         O92   1.978       .  S
Fe83        O101   2.062       .  S
Fe83         O88   2.077       .  S
Fe83         O95   2.082       .  S
Fe83         O84   2.075       .  S
Fe83         O92   1.980       .  S
O84          C91   1.269       .  A
O85          C99   1.273       .  A
O86          C91   1.265       .  A
O87          C90   1.272       .  A
O88         C100   1.272       .  A
O89         C102   1.268       .  A
C90        C2800   1.494       .  S
C90          O95   1.273       .  A
C91        C2635   1.487       .  S
O93          C96   1.274       .  A
O94          C96   1.273       .  A
C96        C2624   1.492       .  S
O97         C102   1.264       .  A
O98         C100   1.269       .  A
C99        C2602   1.487       .  S
C99         O101   1.270       .  A
C100       C2569   1.488       .  S
C102       C2866   1.485       .  S
C103        C104   1.411       .  A
C103        C108   1.413       .  A
C103       C2547   1.496       .  S
C104        C105   1.404       .  A
C104        H109   1.083       .  S
C105        C106   1.400       .  A
C105       C2646   1.484       .  S
C106        C107   1.403       .  A
C106        H110   1.084       .  S
C107        C108   1.409       .  A
C107       C2536   1.489       .  S
C108        H111   1.083       .  S
C112        C113   1.409       .  A
C112        C117   1.411       .  A
C112       C2613   1.494       .  S
C113        C114   1.405       .  A
C113        H118   1.083       .  S
C114        C115   1.404       .  A
C114       C2503   1.487       .  S
C115        C116   1.405       .  A
C115        H119   1.083       .  S
C116        C117   1.410       .  A
C116       C2492   1.494       .  S
C117        H120   1.083       .  S
Fe121       O137   2.070       .  S
Fe121       O127   2.057       .  S
Fe121       O134   2.056       .  S
Fe121       O126   2.071       .  S
Fe121       O132   1.981   1_455  S
Fe122       O125   2.061       .  S
Fe122       O129   2.073       .  S
Fe122       O133   2.071       .  S
Fe122       O138   2.070       .  S
Fe122       O132   1.979       .  S
Fe123       O141   2.078       .  S
Fe123       O128   2.062       .  S
Fe123       O135   2.076       .  S
Fe123       O124   2.077   1_655  S
Fe123       O132   1.980       .  S
O124        C131   1.273       .  A
O125        C139   1.270       .  A
O126        C131   1.272       .  A
O127        C130   1.266       .  A
O128        C140   1.269       .  A
O129        C142   1.272       .  A
C130       C3075   1.487       .  S
C130        O135   1.269   1_455  A
C131       C2558   1.491       .  S
O133        C136   1.268   1_655  A
O134        C136   1.266       .  A
C136       C2514   1.486       .  S
O137        C142   1.271   1_455  A
O138        C140   1.270       .  A
C139       C2470   1.486       .  S
C139        O141   1.273       .  A
C140       C2448   1.484       .  S
C142       C3009   1.488       .  S
C143        C144   1.412       .  A
C143        C148   1.411       .  A
C143       C2701   1.494       .  S
C144        C145   1.408       .  A
C144        H149   1.083       .  S
C145        C146   1.403       .  A
C145       C2393   1.488       .  S
C146        C147   1.402       .  A
C146        H150   1.084       .  S
C147        C148   1.407       .  A
C147       C2415   1.489       .  S
C148        H151   1.083       .  S
C152        C153   1.412       .  A
C152        C157   1.411       .  A
C152       C2382   1.493       .  S
C153        C154   1.408       .  A
C153        H158   1.083       .  S
C154        C155   1.402       .  A
C154       C2723   1.491       .  S
C155        C156   1.401       .  A
C155        H159   1.083       .  S
C156        C157   1.406       .  A
C156       C2360   1.485       .  S
C157        H160   1.083       .  S
Fe161       O177   2.050       .  S
Fe161       O167   2.073   1_545  S
Fe161       O174   2.072       .  S
Fe161       O166   2.051       .  S
Fe161       O172   1.980       .  S
Fe162       O165   2.076       .  S
Fe162       O169   2.087       .  S
Fe162       O173   2.078       .  S
Fe162       O178   2.071       .  S
Fe162       O172   1.980       .  S
Fe163       O181   2.069       .  S
Fe163       O168   2.075       .  S
Fe163       O175   2.081       .  S
Fe163       O164   2.084       .  S
Fe163       O172   1.979       .  S
O164        C171   1.269       .  A
O165        C179   1.272       .  A
O166        C171   1.264       .  A
O167        C170   1.273   1_565  A
O168        C180   1.272       .  A
O169        C182   1.270       .  A
C170       C2305   1.492   1_545  S
C170        O175   1.274       .  A
C171       C2426   1.490       .  S
O173        C176   1.274       .  A
O174        C176   1.273       .  A
C176       C2371   1.491       .  S
O177        C182   1.264       .  A
O178        C180   1.271       .  A
C179       C2261   1.489       .  S
C179        O181   1.271       .  A
C180       C2283   1.490       .  S
C182       C2338   1.491       .  S
C183        C184   1.412       .  A
C183        C188   1.412       .  A
C183       C2239   1.497       .  S
C184        C185   1.408       .  A
C184        H189   1.082       .  S
C185        C186   1.403       .  A
C185       C2217   1.488       .  S
C186        C187   1.402       .  A
C186        H190   1.084       .  S
C187        C188   1.407       .  A
C187       C2954   1.489       .  S
C188        H191   1.083       .  S
C192        C193   1.411       .  A
C192        C197   1.412       .  A
C192       C2921   1.495       .  S
C193        C194   1.407       .  A
C193        H198   1.083       .  S
C194        C195   1.402       .  A
C194       C2195   1.489       .  S
C195        C196   1.402       .  A
C195        H199   1.083       .  S
C196        C197   1.407       .  A
C196       C2173   1.487       .  S
C197        H200   1.083       .  S
C201        C202   1.412       .  A
C201        C206   1.411       .  A
C201       C2162   1.496       .  S
C202        C203   1.407       .  A
C202        H207   1.083       .  S
C203        C204   1.401       .  A
C203       C2327   1.487       .  S
C204        C205   1.402       .  A
C204        H208   1.084       .  S
C205        C206   1.406       .  A
C205       C2140   1.485       .  S
C206        H209   1.083       .  S
C210        C211   1.413       .  A
C210        C215   1.412       .  A
C210       C2316   1.497       .  S
C211        C212   1.407       .  A
C211        H216   1.083       .  S
C212        C213   1.402       .  A
C212       C2107   1.489       .  S
C213        C214   1.402       .  A
C213        H217   1.084       .  S
C214        C215   1.407       .  A
C214       C2085   1.488       .  S
C215        H218   1.083       .  S
Fe219       O235   2.071       .  S
Fe219       O225   2.055       .  S
Fe219       O232   2.052       .  S
Fe219       O224   2.071       .  S
Fe219       O230   1.980       .  S
Fe220       O223   2.071       .  S
Fe220       O227   2.083       .  S
Fe220       O231   2.084       .  S
Fe220       O236   2.080       .  S
Fe220       O230   1.983       .  S
Fe221       O239   2.070       .  S
Fe221       O226   2.053       .  S
Fe221       O233   2.070       .  S
Fe221       O222   2.078       .  S
Fe221       O230   1.977       .  S
O222        C229   1.273       .  A
O223        C237   1.271       .  A
O224        C229   1.272       .  A
O225        C228   1.265       .  A
O226        C238   1.268       .  A
O227        C240   1.275       .  A
C228       C2206   1.485       .  S
C228        O233   1.267       .  A
C229       C2151   1.491       .  S
O231        C234   1.270       .  A
O232        C234   1.265       .  A
C234       C2118   1.489       .  S
O235        C240   1.272       .  A
O236        C238   1.273       .  A
C237       C2041   1.488       .  S
C237        O239   1.271       .  A
C238       C2063   1.484       .  S
C240       C2250   1.493       .  S
C241        C242   1.411       .  A
C241        C246   1.411       .  A
C241       C2008   1.493       .  S
C242        C243   1.406       .  A
C242        H247   1.083       .  S
C243        C244   1.401       .  A
C243       C2074   1.485       .  S
C244        C245   1.401       .  A
C244        H248   1.084       .  S
C245        C246   1.406       .  A
C245       C2019   1.485       .  S
C246        H249   1.083       .  S
C250        C251   1.412       .  A
C250        C255   1.410       .  A
C250       C1975   1.494       .  S
C251        C252   1.408   1_455  A
C251        H256   1.083       .  S
C252        C253   1.402   1_655  A
C252       C2272   1.487       .  S
C253        C254   1.401       .  A
C253        H257   1.084   1_455  S
C254        C255   1.405       .  A
C254       C1964   1.485       .  S
C255        H258   1.083       .  S
Fe259       O275   2.068       .  S
Fe259       O265   2.052       .  S
Fe259       O272   2.051       .  S
Fe259       O264   2.071   1_455  S
Fe259       O270   1.978       .  S
Fe260       O263   2.065       .  S
Fe260       O267   2.083       .  S
Fe260       O271   2.079       .  S
Fe260       O276   2.081       .  S
Fe260       O270   1.979       .  S
Fe261       O279   2.078   1_655  S
Fe261       O266   2.055       .  S
Fe261       O273   2.071       .  S
Fe261       O262   2.082       .  S
Fe261       O270   1.978   1_655  S
O262        C269   1.275       .  A
O263        C277   1.270       .  A
O264        C269   1.273       .  A
O265        C268   1.264   1_455  A
O266        C278   1.268       .  A
O267        C280   1.275       .  A
C268       C1953   1.485   1_655  S
C268        O273   1.267       .  A
C269       C1909   1.492       .  S
O271        C274   1.269       .  A
O272        C274   1.264       .  A
C274       C1931   1.488       .  S
O275        C280   1.272       .  A
O276        C278   1.273   1_455  A
C277       C1887   1.487       .  S
C277        O279   1.273       .  A
C278       C2228   1.487       .  S
C280       C1997   1.489       .  S
Fe281       O297   2.048       .  S
Fe281       O287   2.071       .  S
Fe281       O294   2.067       .  S
Fe281       O286   2.050       .  S
Fe281       O292   1.978       .  S
Fe282       O285   2.074       .  S
Fe282       O289   2.071       .  S
Fe282       O293   2.080       .  S
Fe282       O298   2.058       .  S
Fe282       O292   1.978       .  S
Fe283       O301   2.060       .  S
Fe283       O288   2.075       .  S
Fe283       O295   2.078       .  S
Fe283       O284   2.072       .  S
Fe283       O292   1.978       .  S
O284        C291   1.267       .  A
O285        C299   1.272       .  A
O286        C291   1.263       .  A
O287        C290   1.273       .  A
O288        C300   1.272       .  A
O289        C302   1.267       .  A
C290       C1986   1.490       .  S
C290        O295   1.274       .  A
C291       C1865   1.484       .  S
O293        C296   1.274       .  A
O294        C296   1.272       .  A
C296       C1843   1.489       .  S
O297        C302   1.263       .  A
O298        C300   1.269       .  A
C299       C1832   1.485       .  S
C299        O301   1.269       .  A
C300       C2349   1.485       .  S
C302       C2030   1.482       .  S
C303        C304   1.412       .  A
C303        C308   1.412       .  A
C303       C1799   1.495       .  S
C304        C305   1.407       .  A
C304        H309   1.083       .  S
C305        C306   1.401       .  A
C305       C1777   1.487       .  S
C306        C307   1.401       .  A
C306        H310   1.083       .  S
C307        C308   1.406       .  A
C307       C1876   1.487       .  S
C308        H311   1.082       .  S
C312        C313   1.410       .  A
C312        C317   1.409       .  A
C312       C1854   1.489       .  S
C313        C314   1.408       .  A
C313        H318   1.084       .  S
C314        C315   1.404       .  A
C314       C1733   1.490       .  S
C315        C316   1.402       .  A
C315        H319   1.083       .  S
C316        C317   1.404       .  A
C316       C1766   1.485       .  S
C317        H320   1.083       .  S
Fe321       O337   2.067       .  S
Fe321       O327   2.058       .  S
Fe321       O334   2.062       .  S
Fe321       O326   2.062       .  S
Fe321       O332   1.980       .  S
Fe322       O325   2.061       .  S
Fe322       O329   2.082       .  S
Fe322       O333   2.077       .  S
Fe322       O338   2.079       .  S
Fe322       O332   1.979       .  S
Fe323       O341   2.079       .  S
Fe323       O328   2.062       .  S
Fe323       O335   2.076       .  S
Fe323       O324   2.083       .  S
Fe323       O332   1.979       .  S
O324        C331   1.274       .  A
O325        C339   1.269       .  A
O326        C331   1.271       .  A
O327        C330   1.265       .  A
O328        C340   1.269       .  A
O329        C342   1.274       .  A
C330       C1755   1.487       .  S
C330        O335   1.269       .  A
C331       C1700   1.488       .  S
O333        C336   1.269       .  A
O334        C336   1.266       .  A
C336       C1722   1.491       .  S
O337        C342   1.271       .  A
O338        C340   1.273       .  A
C339       C2404   1.486       .  S
C339        O341   1.273       .  A
C340       C1678   1.489       .  S
C342       C1810   1.491       .  S
C343        C344   1.412       .  A
C343        C348   1.412       .  A
C343       C1920   1.493       .  S
C344        C345   1.407       .  A
C344        H349   1.083       .  S
C345        C346   1.401       .  A
C345       C1656   1.488       .  S
C346        C347   1.401       .  A
C346        H350   1.084       .  S
C347        C348   1.407       .  A
C347       C1634   1.486       .  S
C348        H351   1.083       .  S
C352        C353   1.411       .  A
C352        C357   1.409       .  A
C352       C1601   1.495       .  S
C353        C354   1.408       .  A
C353        H358   1.083       .  S
C354        C355   1.404   1_655  A
C354       C1942   1.488       .  S
C355        C356   1.403       .  A
C355        H359   1.083       .  S
C356        C357   1.406   1_455  A
C356       C1579   1.488       .  S
C357        H360   1.083       .  S
C361        C362   1.413       .  A
C361        C366   1.414       .  A
C361       C1546   1.499       .  S
C362        C363   1.407       .  A
C362        H367   1.082       .  S
C363        C364   1.402       .  A
C363       C1568   1.491       .  S
C364        C365   1.402       .  A
C364        H368   1.084       .  S
C365        C366   1.409       .  A
C365       C2899   1.490       .  S
C366        H369   1.083       .  S
C370        C371   1.409       .  A
C370        C375   1.411       .  A
C370       C1524   1.492       .  S
C371        C372   1.405       .  A
C371        H376   1.083       .  S
C372        C373   1.402       .  A
C372       C1502   1.488       .  S
C373        C374   1.403       .  A
C373        H377   1.083       .  S
C374        C375   1.407       .  A
C374       C2459   1.490       .  S
C375        H378   1.083       .  S
Fe379       O395   2.054       .  S
Fe379       O385   2.068       .  S
Fe379       O392   2.073       .  S
Fe379       O384   2.053       .  S
Fe379       O390   1.981       .  S
Fe380       O383   2.079       .  S
Fe380       O387   2.073   1_565  S
Fe380       O391   2.082       .  S
Fe380       O396   2.058       .  S
Fe380       O390   1.978   1_565  S
Fe381       O399   2.058   1_545  S
Fe381       O386   2.079   1_545  S
Fe381       O393   2.083       .  S
Fe381       O382   2.070       .  S
Fe381       O390   1.978       .  S
O382        C389   1.268       .  A
O383        C397   1.273       .  A
O384        C389   1.265       .  A
O385        C388   1.272       .  A
O386        C398   1.272       .  A
O387        C400   1.268       .  A
C388       C1612   1.491       .  S
C388        O393   1.274       .  A
C389       C1491   1.483       .  S
O391        C394   1.274   1_565  A
O392        C394   1.273       .  A
C394       C1535   1.493       .  S
O395        C400   1.264       .  A
O396        C398   1.268       .  A
C397       C2184   1.486       .  S
C397        O399   1.269       .  A
C398       C1469   1.488       .  S
C400       C1645   1.485       .  S
Fe401       O417   2.069       .  S
Fe401       O407   2.056       .  S
Fe401       O414   2.053       .  S
Fe401       O406   2.071   1_545  S
Fe401       O412   1.981       .  S
Fe402       O405   2.066       .  S
Fe402       O409   2.075       .  S
Fe402       O413   2.081       .  S
Fe402       O418   2.075       .  S
Fe402       O412   1.979       .  S
Fe403       O421   2.076       .  S
Fe403       O408   2.065       .  S
Fe403       O415   2.078       .  S
Fe403       O404   2.080       .  S
Fe403       O412   1.978       .  S
O404        C411   1.274       .  A
O405        C419   1.270       .  A
O406        C411   1.273   1_565  A
O407        C410   1.265       .  A
O408        C420   1.270       .  A
O409        C422   1.273       .  A
C410       C1557   1.489       .  S
C410        O415   1.268       .  A
C411       C1425   1.491   1_545  S
O413        C416   1.269       .  A
O414        C416   1.265       .  A
C416       C1458   1.489       .  S
O417        C422   1.272       .  A
O418        C420   1.272       .  A
C419       C1403   1.488       .  S
C419        O421   1.272       .  A
C420       C2525   1.488       .  S
C422       C1513   1.488       .  S
C423        C424   1.412       .  A
C423        C428   1.411       .  A
C423       C1436   1.496       .  S
C424        C425   1.407       .  A
C424        H429   1.082       .  S
C425        C426   1.402   1_455  A
C425       C1381   1.491       .  S
C426        C427   1.402       .  A
C426        H430   1.083       .  S
C427        C428   1.407   1_655  A
C427       C1359   1.487       .  S
C428        H431   1.083       .  S
C432        C433   1.411       .  A
C432        C437   1.411       .  A
C432       C1348   1.492       .  S
C433        C434   1.408       .  A
C433        H438   1.084       .  S
C434        C435   1.404       .  A
C434       C1315   1.489       .  S
C435        C436   1.401       .  A
C435        H439   1.083       .  S
C436        C437   1.405       .  A
C436       C1447   1.487       .  S
C437        H440   1.083       .  S
C441        C442   1.411       .  A
C441        C446   1.410       .  A
C441       C1689   1.492       .  S
C442        C443   1.406   1_655  A
C442        H447   1.084       .  S
C443        C444   1.403       .  A
C443       C2679   1.487       .  S
C444        C445   1.403   1_455  A
C444        H448   1.084       .  S
C445        C446   1.406       .  A
C445       C1304   1.490       .  S
C446        H449   1.083       .  S
C450        C451   1.411       .  A
C450        C455   1.412       .  A
C450       C1271   1.495       .  S
C451        C452   1.408       .  A
C451        H456   1.083       .  S
C452        C453   1.404       .  A
C452       C2591   1.490       .  S
C453        C454   1.403       .  A
C453        H457   1.084       .  S
C454        C455   1.408       .  A
C454       C1711   1.490       .  S
C455        H458   1.083       .  S
Fe459       O475   2.051       .  S
Fe459       O465   2.075       .  S
Fe459       O472   2.075   1_455  S
Fe459       O464   2.052       .  S
Fe459       O470   1.979       .  S
Fe460       O463   2.080   1_655  S
Fe460       O467   2.080       .  S
Fe460       O471   2.081       .  S
Fe460       O476   2.064       .  S
Fe460       O470   1.979   1_655  S
Fe461       O479   2.069       .  S
Fe461       O466   2.072   1_455  S
Fe461       O473   2.074       .  S
Fe461       O462   2.081       .  S
Fe461       O470   1.979       .  S
O462        C469   1.269       .  A
O463        C477   1.273       .  A
O464        C469   1.264       .  A
O465        C468   1.274       .  A
O466        C478   1.272       .  A
O467        C480   1.269       .  A
C468       C1337   1.490       .  S
C468        O473   1.273       .  A
C469       C1293   1.489       .  S
O471        C474   1.274       .  A
O472        C474   1.274       .  A
C474       C1282   1.493       .  S
O475        C480   1.264   1_455  A
O476        C478   1.270       .  A
C477       C2481   1.492       .  S
C477        O479   1.271       .  A
C478       C1260   1.486       .  S
C480       C1392   1.488   1_655  S
C481        C482   1.412       .  A
C481        C486   1.412       .  A
C481       C1205   1.498       .  S
C482        C483   1.406       .  A
C482        H487   1.083       .  S
C483        C484   1.403       .  A
C483       C1238   1.489       .  S
C484        C485   1.403       .  A
C484        H488   1.083       .  S
C485        C486   1.409       .  A
C485       C1898   1.492       .  S
C486        H489   1.083       .  S
C490        C491   1.410   1_565  A
C490        C495   1.411       .  A
C490       C1194   1.494       .  S
C491        C492   1.407       .  A
C491        H496   1.083       .  S
C492        C493   1.403       .  A
C492       C1821   1.487       .  S
C493        C494   1.403       .  A
C493        H497   1.083       .  S
C494        C495   1.408   1_545  A
C494       C1161   1.490       .  S
C495        H498   1.083       .  S
Fe499       O515   2.076       .  S
Fe499       O505   2.056       .  S
Fe499       O512   2.057       .  S
Fe499       O504   2.077   1_545  S
Fe499       O510   1.979       .  S
Fe500       O503   2.060       .  S
Fe500       O507   2.078       .  S
Fe500       O511   2.073       .  S
Fe500       O516   2.071       .  S
Fe500       O510   1.979       .  S
Fe501       O519   2.079       .  S
Fe501       O506   2.060   1_545  S
Fe501       O513   2.074       .  S
Fe501       O502   2.077   1_545  S
Fe501       O510   1.981       .  S
O502        C509   1.273       .  A
O503        C517   1.269       .  A
O504        C509   1.273       .  A
O505        C508   1.265       .  A
O506        C518   1.269   1_565  A
O507        C520   1.273       .  A
C508       C1139   1.485       .  S
C508        O513   1.268       .  A
C509       C1216   1.493       .  S
O511        C514   1.268       .  A
O512        C514   1.265       .  A
C514       C1172   1.488       .  S
O515        C520   1.274       .  A
O516        C518   1.271       .  A
C517       C1623   1.488       .  S
C517        O519   1.273       .  A
C518       C2129   1.483   1_545  S
C520       C1117   1.492       .  S
C521        C522   1.412   1_565  A
C521        C526   1.412       .  A
C521       C1073   1.495       .  S
C522        C523   1.406       .  A
C522        H527   1.083       .  S
C523        C524   1.401       .  A
C523       C2437   1.483       .  S
C524        C525   1.401       .  A
C524        H528   1.084       .  S
C525        C526   1.406   1_545  A
C525       C1095   1.486       .  S
C526        H529   1.083       .  S
C530        C531   1.412       .  A
C530        C535   1.410       .  A
C530       C1051   1.493       .  S
C531        C532   1.408       .  A
C531        H536   1.083       .  S
C532        C533   1.404       .  A
C532       C1029   1.491       .  S
C533        C534   1.403       .  A
C533        H537   1.084       .  S
C534        C535   1.406       .  A
C534       C2580   1.487       .  S
C535        H538   1.083       .  S
C539        C540   1.411       .  A
C539        C544   1.412       .  A
C539        C996   1.495       .  S
C540        C541   1.406       .  A
C540        H545   1.083       .  S
C541        C542   1.402       .  A
C541       C1007   1.487       .  S
C542        C543   1.403       .  A
C542        H546   1.084       .  S
C543        C544   1.408       .  A
C543       C2657   1.489       .  S
C544        H547   1.083       .  S
C548        C549   1.413       .  A
C548        C553   1.411       .  A
C548        C963   1.496       .  S
C549        C550   1.411       .  A
C549        H554   1.083       .  S
C550        C551   1.403       .  A
C550       C2294   1.492       .  S
C551        C552   1.401       .  A
C551        H555   1.083       .  S
C552        C553   1.404       .  A
C552        C941   1.485       .  S
C553        H556   1.083       .  S
C557        C558   1.413       .  A
C557        C562   1.412       .  A
C557        C897   1.497       .  S
C558        C559   1.407       .  A
C558        H563   1.083       .  S
C559        C560   1.402       .  A
C559       C1667   1.486   1_545  S
C560        C561   1.401       .  A
C560        H564   1.083       .  S
C561        C562   1.405       .  A
C561        C919   1.487       .  S
C562        H565   1.083       .  S
C566        C567   1.411       .  A
C566        C571   1.410       .  A
C566        C886   1.493       .  S
C567        C568   1.407       .  A
C567        H572   1.083       .  S
C568        C569   1.404       .  A
C568        C853   1.490       .  S
C569        C570   1.403       .  A
C569        H573   1.083       .  S
C570        C571   1.406       .  A
C570       C1249   1.487       .  S
C571        H574   1.083       .  S
Fe575       O591   2.077   1_655  S
Fe575       O581   2.049       .  S
Fe575       O588   2.052       .  S
Fe575       O580   2.079       .  S
Fe575       O586   1.978   1_655  S
Fe576       O579   2.065       .  S
Fe576       O583   2.074       .  S
Fe576       O587   2.079       .  S
Fe576       O592   2.069       .  S
Fe576       O586   1.979       .  S
Fe577       O595   2.073       .  S
Fe577       O582   2.064       .  S
Fe577       O589   2.078       .  S
Fe577       O578   2.072   1_455  S
Fe577       O586   1.978       .  S
O578        C585   1.273       .  A
O579        C593   1.270       .  A
O580        C585   1.274       .  A
O581        C584   1.264       .  A
O582        C594   1.270       .  A
O583        C596   1.273       .  A
C584        C952   1.485       .  S
C584        O589   1.269   1_655  A
C585        C908   1.490       .  S
O587        C590   1.269       .  A
O588        C590   1.264   1_655  A
C590        C864   1.489   1_455  S
O591        C596   1.274       .  A
O592        C594   1.271       .  A
C593       C1788   1.487       .  S
C593        O595   1.271       .  A
C594       C2811   1.484       .  S
C596        C985   1.491       .  S
Fe597       O613   2.054       .  S
Fe597       O603   2.069       .  S
Fe597       O610   2.068   1_545  S
Fe597       O602   2.055       .  S
Fe597       O608   1.980       .  S
Fe598       O601   2.080       .  S
Fe598       O605   2.076       .  S
Fe598       O609   2.082   1_545  S
Fe598       O614   2.062   1_545  S
Fe598       O608   1.980       .  S
Fe599       O617   2.063       .  S
Fe599       O604   2.076       .  S
Fe599       O611   2.082       .  S
Fe599       O600   2.076       .  S
Fe599       O608   1.980       .  S
O600        C607   1.268       .  A
O601        C615   1.272       .  A
O602        C607   1.265       .  A
O603        C606   1.272       .  A
O604        C616   1.273       .  A
O605        C618   1.269       .  A
C606        C875   1.491       .  S
C606        O611   1.274       .  A
C607       C1106   1.488       .  S
O609        C612   1.273       .  A
O610        C612   1.271       .  A
C612       C1062   1.491       .  S
O613        C618   1.265       .  A
O614        C616   1.270   1_565  A
C615       C2756   1.490       .  S
C615        O617   1.269       .  A
C616       C1326   1.486   1_545  S
C618        C930   1.487       .  S
Fe619       O635   2.059       .  S
Fe619       O625   2.076       .  S
Fe619       O632   2.078       .  S
Fe619       O624   2.058       .  S
Fe619       O630   1.982   1_455  S
Fe620       O623   2.075       .  S
Fe620       O627   2.069       .  S
Fe620       O631   2.077       .  S
Fe620       O636   2.056       .  S
Fe620       O630   1.977       .  S
Fe621       O639   2.064       .  S
Fe621       O626   2.081       .  S
Fe621       O633   2.083   1_655  S
Fe621       O622   2.078   1_655  S
Fe621       O630   1.980       .  S
O622        C629   1.269       .  A
O623        C637   1.272       .  A
O624        C629   1.266       .  A
O625        C628   1.273       .  A
O626        C638   1.273       .  A
O627        C640   1.267   1_655  A
C628       C1183   1.495       .  S
C628        O633   1.274       .  A
C629       C1018   1.489       .  S
O631        C634   1.273       .  A
O632        C634   1.273   1_455  A
C634        C974   1.493       .  S
O635        C640   1.266       .  A
O636        C638   1.268       .  A
C637       C2096   1.488       .  S
C637        O639   1.270       .  A
C638       C1744   1.487       .  S
C640       C1227   1.487       .  S
C641        C642   1.411       .  A
C641        C646   1.412       .  A
C641        C809   1.497       .  S
C642        C643   1.407       .  A
C642        H647   1.083       .  S
C643        C644   1.403       .  A
C643        C842   1.489       .  S
C644        C645   1.403       .  A
C644        H648   1.083       .  S
C645        C646   1.407       .  A
C645       C1414   1.489       .  S
C646        H649   1.083       .  S
C650        C651   1.411       .  A
C650        C655   1.411       .  A
C650        C798   1.494       .  S
C651        C652   1.407       .  A
C651        H656   1.083       .  S
C652        C653   1.403       .  A
C652        C765   1.490       .  S
C653        C654   1.403       .  A
C653        H657   1.083       .  S
C654        C655   1.407       .  A
C654       C1480   1.489       .  S
C655        H658   1.083       .  S
Fe659       O675   2.071       .  S
Fe659       O665   2.067       .  S
Fe659       O672   2.063       .  S
Fe659       O664   2.073       .  S
Fe659       O670   1.982       .  S
Fe660       O663   2.064       .  S
Fe660       O667   2.081       .  S
Fe660       O671   2.076       .  S
Fe660       O676   2.078       .  S
Fe660       O670   1.979       .  S
Fe661       O679   2.071       .  S
Fe661       O666   2.060       .  S
Fe661       O673   2.072       .  S
Fe661       O662   2.070       .  S
Fe661       O670   1.980       .  S
O662        C669   1.271       .  A
O663        C677   1.269       .  A
O664        C669   1.272       .  A
O665        C668   1.268       .  A
O666        C678   1.269       .  A
O667        C680   1.274       .  A
C668        C776   1.490       .  S
C668        O673   1.269       .  A
C669       C1084   1.489       .  S
O671        C674   1.269       .  A
O672        C674   1.266       .  A
C674       C1040   1.491       .  S
O675        C680   1.272       .  A
O676        C678   1.273       .  A
C677       C2965   1.486       .  S
C677        O679   1.270       .  A
C678       C1370   1.487       .  S
C680        C820   1.491       .  S
C681        C682   1.409       .  A
C681        C686   1.410       .  A
C681       C1128   1.494       .  S
C682        C683   1.406       .  A
C682        H687   1.083       .  S
C683        C684   1.404       .  A
C683        C743   1.489       .  S
C684        C685   1.403       .  A
C684        H688   1.083       .  S
C685        C686   1.408       .  A
C685       C2052   1.488       .  S
C686        H689   1.084       .  S
C690        C691   1.410       .  A
C690        C695   1.411       .  A
C690        C721   1.492       .  S
C691        C692   1.406       .  A
C691        H696   1.083       .  S
C692        C693   1.402       .  A
C692       C1150   1.487       .  S
C693        C694   1.402       .  A
C693        H697   1.083       .  S
C694        C695   1.407       .  A
C694       C2888   1.488   1_545  S
C695        H698   1.083       .  S
Fe699       O715   2.050       .  S
Fe699       O705   2.069       .  S
Fe699       O712   2.069       .  S
Fe699       O704   2.053       .  S
Fe699       O710   1.978       .  S
Fe700       O703   2.074       .  S
Fe700       O707   2.075       .  S
Fe700       O711   2.080       .  S
Fe700       O716   2.061       .  S
Fe700       O710   1.978       .  S
Fe701       O719   2.061       .  S
Fe701       O706   2.075       .  S
Fe701       O713   2.080       .  S
Fe701       O702   2.073       .  S
Fe701       O710   1.980       .  S
O702        C709   1.268       .  A
O703        C717   1.271       .  A
O704        C709   1.264       .  A
O705        C708   1.272       .  A
O706        C718   1.273       .  A
O707        C720   1.268       .  A
C708        C732   1.491       .  S
C708        O713   1.274       .  A
C709        C831   1.486       .  S
O711        C714   1.273       .  A
O712        C714   1.272       .  A
C714        C787   1.491       .  S
O715        C720   1.264       .  A
O716        C718   1.270       .  A
C717       C1590   1.486       .  S
C717        O719   1.268       .  A
C718       C3042   1.485       .  S
C720        C754   1.485       .  S
C721        C722   1.408       .  A
C721        C726   1.408       .  A
C722        C723   1.401       .  A
C722        H735   1.083       .  S
C723        C724   1.401       .  A
C723        H736   1.084       .  S
C724        C725   1.401       .  A
C724        C727   1.448       .  S
C725        C726   1.402       .  A
C725        H737   1.083       .  S
C726        H738   1.083       .  S
C727        C728   1.211       .  T
C728        C729   1.448       .  S
C729        C730   1.400       .  A
C729        C734   1.402       .  A
C730        C731   1.400       .  A
C730        H739   1.084       .  S
C731        C732   1.410       .  A
C731        H740   1.082       .  S
C732        C733   1.409       .  A
C733        C734   1.403       .  A
C733        H741   1.083       .  S
C734        H742   1.083       .  S
C743        C744   1.408       .  A
C743        C748   1.408       .  A
C744        C745   1.401       .  A
C744        H757   1.082       .  S
C745        C746   1.400       .  A
C745        H758   1.084       .  S
C746        C747   1.399       .  A
C746        C749   1.441       .  S
C747        C748   1.397       .  A
C747        H759   1.083       .  S
C748        H760   1.084       .  S
C749        C750   1.207       .  T
C750        C751   1.441       .  S
C751        C752   1.397       .  A
C751        C756   1.402       .  A
C752        C753   1.396       .  A
C752        H761   1.085       .  S
C753        C754   1.410       .  A
C753        H762   1.082       .  S
C754        C755   1.408       .  A
C755        C756   1.402       .  A
C755        H763   1.084       .  S
C756        H764   1.083       .  S
C765        C766   1.408       .  A
C765        C770   1.407       .  A
C766        C767   1.398       .  A
C766        H779   1.083       .  S
C767        C768   1.399       .  A
C767        H780   1.083       .  S
C768        C769   1.403       .  A
C768        C771   1.446       .  S
C769        C770   1.403       .  A
C769        H781   1.083       .  S
C770        H782   1.083       .  S
C771        C772   1.210       .  T
C772        C773   1.446       .  S
C773        C774   1.400       .  A
C773        C778   1.401       .  A
C774        C775   1.400       .  A
C774        H783   1.084       .  S
C775        C776   1.410       .  A
C775        H784   1.083       .  S
C776        C777   1.409       .  A
C777        C778   1.402       .  A
C777        H785   1.083       .  S
C778        H786   1.083       .  S
C787        C788   1.409       .  A
C787        C792   1.410       .  A
C788        C789   1.401       .  A
C788        H801   1.083       .  S
C789        C790   1.401       .  A
C789        H802   1.083       .  S
C790        C791   1.401       .  A
C790        C793   1.448       .  S
C791        C792   1.402       .  A
C791        H803   1.084       .  S
C792        H804   1.082       .  S
C793        C794   1.211       .  T
C794        C795   1.448       .  S
C795        C796   1.401       .  A
C795        C800   1.401       .  A
C796        C797   1.403       .  A
C796        H805   1.083       .  S
C797        C798   1.409       .  A
C797        H806   1.084       .  S
C798        C799   1.408       .  A
C799        C800   1.401       .  A
C799        H807   1.082       .  S
C800        H808   1.084       .  S
C809        C810   1.410       .  A
C809        C814   1.410       .  A
C810        C811   1.401       .  A
C810        H823   1.082       .  S
C811        C812   1.400       .  A
C811        H824   1.083       .  S
C812        C813   1.401       .  A
C812        C815   1.448       .  S
C813        C814   1.402       .  A
C813        H825   1.083       .  S
C814        H826   1.082       .  S
C815        C816   1.211       .  T
C816        C817   1.448       .  S
C817        C818   1.400       .  A
C817        C822   1.401       .  A
C818        C819   1.401       .  A
C818        H827   1.083       .  S
C819        C820   1.409       .  A
C819        H828   1.083       .  S
C820        C821   1.409       .  A
C821        C822   1.402       .  A
C821        H829   1.082       .  S
C822        H830   1.084       .  S
C831        C832   1.409       .  A
C831        C836   1.408       .  A
C832        C833   1.397       .  A
C832        H845   1.082       .  S
C833        C834   1.398       .  A
C833        H846   1.084       .  S
C834        C835   1.401       .  A
C834        C837   1.443       .  S
C835        C836   1.402       .  A
C835        H847   1.083       .  S
C836        H848   1.083       .  S
C837        C838   1.208       .  T
C838        C839   1.443       .  S
C839        C840   1.401       .  A
C839        C844   1.400       .  A
C840        C841   1.401       .  A
C840        H849   1.084       .  S
C841        C842   1.408       .  A
C841        H850   1.082       .  S
C842        C843   1.408       .  A
C843        C844   1.398       .  A
C843        H851   1.084       .  S
C844        H852   1.082       .  S
C853        C854   1.408       .  A
C853        C858   1.408       .  A
C854        C855   1.403       .  A
C854        H867   1.083       .  S
C855        C856   1.402       .  A
C855        H868   1.084       .  S
C856        C857   1.399       .  A
C856        C859   1.445       .  S
C857        C858   1.398       .  A
C857        H869   1.083       .  S
C858        H870   1.083       .  S
C859        C860   1.209       .  T
C860        C861   1.445       .  S
C861        C862   1.402       .  A
C861        C866   1.398       .  A
C862        C863   1.403   1_655  A
C862        H871   1.083   1_655  S
C863        C864   1.408   1_455  A
C863        H872   1.083       .  S
C864        C865   1.410       .  A
C865        C866   1.398       .  A
C865        H873   1.083       .  S
C866        H874   1.084       .  S
C875        C876   1.410       .  A
C875        C880   1.409       .  A
C876        C877   1.401       .  A
C876        H889   1.083       .  S
C877        C878   1.400       .  A
C877        H890   1.083       .  S
C878        C879   1.401       .  A
C878        C881   1.447       .  S
C879        C880   1.402       .  A
C879        H891   1.084       .  S
C880        H892   1.082       .  S
C881        C882   1.211       .  T
C882        C883   1.447       .  S
C883        C884   1.401       .  A
C883        C888   1.401       .  A
C884        C885   1.401       .  A
C884        H893   1.084       .  S
C885        C886   1.408       .  A
C885        H894   1.082       .  S
C886        C887   1.409       .  A
C887        C888   1.401       .  A
C887        H895   1.084       .  S
C888        H896   1.082       .  S
C897        C898   1.410       .  A
C897        C902   1.410       .  A
C898        C899   1.403       .  A
C898        H911   1.083       .  S
C899        C900   1.401       .  A
C899        H912   1.083       .  S
C900        C901   1.400       .  A
C900        C903   1.448       .  S
C901        C902   1.400       .  A
C901        H913   1.084       .  S
C902        H914   1.082       .  S
C903        C904   1.211       .  T
C904        C905   1.448       .  S
C905        C906   1.402       .  A
C905        C910   1.400       .  A
C906        C907   1.402       .  A
C906        H915   1.083       .  S
C907        C908   1.409       .  A
C907        H916   1.083       .  S
C908        C909   1.410       .  A
C909        C910   1.401       .  A
C909        H917   1.082       .  S
C910        H918   1.084       .  S
C919        C920   1.407       .  A
C919        C924   1.407       .  A
C920        C921   1.402       .  A
C920        H933   1.082       .  S
C921        C922   1.402       .  A
C921        H934   1.084       .  S
C922        C923   1.399       .  A
C922        C925   1.443       .  S
C923        C924   1.397       .  A
C923        H935   1.083       .  S
C924        H936   1.084       .  S
C925        C926   1.208       .  T
C926        C927   1.443       .  S
C927        C928   1.398       .  A
C927        C932   1.402       .  A
C928        C929   1.397       .  A
C928        H937   1.084       .  S
C929        C930   1.410       .  A
C929        H938   1.083       .  S
C930        C931   1.408       .  A
C931        C932   1.402       .  A
C931        H939   1.083       .  S
C932        H940   1.083       .  S
C941        C942   1.407       .  A
C941        C946   1.406       .  A
C942        C943   1.398       .  A
C942        H955   1.083       .  S
C943        C944   1.399       .  A
C943        H956   1.083       .  S
C944        C945   1.402       .  A
C944        C947   1.443   1_556  S
C945        C946   1.402       .  A
C945        H957   1.083       .  S
C946        H958   1.083       .  S
C947        C948   1.208       .  T
C948        C949   1.443       .  S
C949        C950   1.398       .  A
C949        C954   1.402       .  A
C950        C951   1.397       .  A
C950        H959   1.084       .  S
C951        C952   1.409       .  A
C951        H960   1.082       .  S
C952        C953   1.407       .  A
C953        C954   1.403       .  A
C953        H961   1.084   1_655  S
C954        H962   1.083       .  S
C963        C964   1.410       .  A
C963        C968   1.409       .  A
C964        C965   1.401       .  A
C964        H977   1.083       .  S
C965        C966   1.400       .  A
C965        H978   1.083       .  S
C966        C967   1.402       .  A
C966        C969   1.450       .  S
C967        C968   1.404       .  A
C967        H979   1.084       .  S
C968        H980   1.082       .  S
C969        C970   1.212       .  T
C970        C971   1.450       .  S
C971        C972   1.400       .  A
C971        C976   1.402       .  A
C972        C973   1.401       .  A
C972        H981   1.083       .  S
C973        C974   1.410       .  A
C973        H982   1.083       .  S
C974        C975   1.410       .  A
C975        C976   1.404       .  A
C975        H983   1.082   1_655  S
C976        H984   1.084       .  S
C985        C986   1.409       .  A
C985        C990   1.410       .  A
C986        C987   1.401       .  A
C986        H999   1.082       .  S
C987        C988   1.401       .  A
C987       H1000   1.084       .  S
C988        C989   1.401       .  A
C988        C991   1.448       .  S
C989        C990   1.402       .  A
C989       H1001   1.083       .  S
C990       H1002   1.083       .  S
C991        C992   1.211       .  T
C992        C993   1.448       .  S
C993        C994   1.401       .  A
C993        C998   1.401       .  A
C994        C995   1.403       .  A
C994       H1003   1.083       .  S
C995        C996   1.409       .  A
C995       H1004   1.082       .  S
C996        C997   1.409       .  A
C997        C998   1.401       .  A
C997       H1005   1.083       .  S
C998       H1006   1.083       .  S
C1007      C1008   1.408       .  A
C1007      C1012   1.407   1_554  A
C1008      C1009   1.399   1_554  A
C1008      H1021   1.083       .  S
C1009      C1010   1.399       .  A
C1009      H1022   1.084       .  S
C1010      C1011   1.403       .  A
C1010      C1013   1.446       .  S
C1011      C1012   1.403       .  A
C1011      H1023   1.083       .  S
C1012      H1024   1.083   1_556  S
C1013      C1014   1.210       .  T
C1014      C1015   1.446       .  S
C1015      C1016   1.399       .  A
C1015      C1020   1.402       .  A
C1016      C1017   1.399       .  A
C1016      H1025   1.084       .  S
C1017      C1018   1.410       .  A
C1017      H1026   1.082       .  S
C1018      C1019   1.408       .  A
C1019      C1020   1.403       .  A
C1019      H1027   1.083       .  S
C1020      H1028   1.083       .  S
C1029      C1030   1.409       .  A
C1029      C1034   1.407       .  A
C1030      C1031   1.400       .  A
C1030      H1043   1.082       .  S
C1031      C1032   1.400       .  A
C1031      H1044   1.084       .  S
C1032      C1033   1.402       .  A
C1032      C1035   1.448       .  S
C1033      C1034   1.403       .  A
C1033      H1045   1.083       .  S
C1034      H1046   1.083       .  S
C1035      C1036   1.211       .  T
C1036      C1037   1.448       .  S
C1037      C1038   1.399       .  A
C1037      C1042   1.402       .  A
C1038      C1039   1.400       .  A
C1038      H1047   1.084       .  S
C1039      C1040   1.410       .  A
C1039      H1048   1.082       .  S
C1040      C1041   1.409       .  A
C1041      C1042   1.404       .  A
C1041      H1049   1.084       .  S
C1042      H1050   1.083       .  S
C1051      C1052   1.408       .  A
C1051      C1056   1.409       .  A
C1052      C1053   1.401       .  A
C1052      H1065   1.083       .  S
C1053      C1054   1.401       .  A
C1053      H1066   1.083       .  S
C1054      C1055   1.402       .  A
C1054      C1057   1.448       .  S
C1055      C1056   1.403       .  A
C1055      H1067   1.084       .  S
C1056      H1068   1.083       .  S
C1057      C1058   1.211       .  T
C1058      C1059   1.448       .  S
C1059      C1060   1.401       .  A
C1059      C1064   1.400       .  A
C1060      C1061   1.403       .  A
C1060      H1069   1.083       .  S
C1061      C1062   1.410       .  A
C1061      H1070   1.083       .  S
C1062      C1063   1.409       .  A
C1063      C1064   1.401       .  A
C1063      H1071   1.082       .  S
C1064      H1072   1.084       .  S
C1073      C1074   1.409       .  A
C1073      C1078   1.409       .  A
C1074      C1075   1.402       .  A
C1074      H1087   1.083       .  S
C1075      C1076   1.401       .  A
C1075      H1088   1.083       .  S
C1076      C1077   1.400       .  A
C1076      C1079   1.446       .  S
C1077      C1078   1.400       .  A
C1077      H1089   1.084       .  S
C1078      H1090   1.082       .  S
C1079      C1080   1.210       .  T
C1080      C1081   1.446       .  S
C1081      C1082   1.401       .  A
C1081      C1086   1.399       .  A
C1082      C1083   1.402       .  A
C1082      H1091   1.084       .  S
C1083      C1084   1.409       .  A
C1083      H1092   1.083       .  S
C1084      C1085   1.409       .  A
C1085      C1086   1.400       .  A
C1085      H1093   1.083       .  S
C1086      H1094   1.083       .  S
C1095      C1096   1.407       .  A
C1095      C1100   1.407       .  A
C1096      C1097   1.403       .  A
C1096      H1109   1.083   1_545  S
C1097      C1098   1.402       .  A
C1097      H1110   1.083   1_545  S
C1098      C1099   1.399       .  A
C1098      C1101   1.444       .  S
C1099      C1100   1.397       .  A
C1099      H1111   1.083       .  S
C1100      H1112   1.083       .  S
C1101      C1102   1.208       .  T
C1102      C1103   1.444       .  S
C1103      C1104   1.398       .  A
C1103      C1108   1.402       .  A
C1104      C1105   1.397       .  A
C1104      H1113   1.085       .  S
C1105      C1106   1.409       .  A
C1105      H1114   1.082       .  S
C1106      C1107   1.409       .  A
C1107      C1108   1.403       .  A
C1107      H1115   1.084       .  S
C1108      H1116   1.082       .  S
C1117      C1118   1.409       .  A
C1117      C1122   1.410       .  A
C1118      C1119   1.401       .  A
C1118      H1131   1.082       .  S
C1119      C1120   1.401       .  A
C1119      H1132   1.084       .  S
C1120      C1121   1.401       .  A
C1120      C1123   1.449       .  S
C1121      C1122   1.403       .  A
C1121      H1133   1.083       .  S
C1122      H1134   1.083       .  S
C1123      C1124   1.211       .  T
C1124      C1125   1.449       .  S
C1125      C1126   1.402       .  A
C1125      C1130   1.401       .  A
C1126      C1127   1.403       .  A
C1126      H1135   1.084       .  S
C1127      C1128   1.409       .  A
C1127      H1136   1.081       .  S
C1128      C1129   1.408       .  A
C1129      C1130   1.400       .  A
C1129      H1137   1.084       .  S
C1130      H1138   1.082       .  S
C1139      C1140   1.409       .  A
C1139      C1144   1.407       .  A
C1140      C1141   1.398       .  A
C1140      H1153   1.082       .  S
C1141      C1142   1.399       .  A
C1141      H1154   1.084       .  S
C1142      C1143   1.401       .  A
C1142      C1145   1.443       .  S
C1143      C1144   1.402       .  A
C1143      H1155   1.083       .  S
C1144      H1156   1.084       .  S
C1145      C1146   1.208       .  T
C1146      C1147   1.443       .  S
C1147      C1148   1.402       .  A
C1147      C1152   1.399       .  A
C1148      C1149   1.402       .  A
C1148      H1157   1.084       .  S
C1149      C1150   1.407       .  A
C1149      H1158   1.082       .  S
C1150      C1151   1.408       .  A
C1151      C1152   1.397       .  A
C1151      H1159   1.084       .  S
C1152      H1160   1.083       .  S
C1161      C1162   1.407       .  A
C1161      C1166   1.409       .  A
C1162      C1163   1.402       .  A
C1162      H1175   1.082   1_545  S
C1163      C1164   1.402       .  A
C1163      H1176   1.084   1_545  S
C1164      C1165   1.399       .  A
C1164      C1167   1.445       .  S
C1165      C1166   1.399       .  A
C1165      H1177   1.083       .  S
C1166      H1178   1.083       .  S
C1167      C1168   1.209       .  T
C1168      C1169   1.445       .  S
C1169      C1170   1.402       .  A
C1169      C1174   1.399       .  A
C1170      C1171   1.403       .  A
C1170      H1179   1.083       .  S
C1171      C1172   1.408       .  A
C1171      H1180   1.083       .  S
C1172      C1173   1.409       .  A
C1173      C1174   1.398       .  A
C1173      H1181   1.083       .  S
C1174      H1182   1.084       .  S
C1183      C1184   1.410       .  A
C1183      C1188   1.410       .  A
C1184      C1185   1.403       .  A
C1184      H1197   1.082       .  S
C1185      C1186   1.401       .  A
C1185      H1198   1.084       .  S
C1186      C1187   1.401       .  A
C1186      C1189   1.451       .  S
C1187      C1188   1.403       .  A
C1187      H1199   1.083       .  S
C1188      H1200   1.083       .  S
C1189      C1190   1.213       .  T
C1190      C1191   1.451       .  S
C1191      C1192   1.402       .  A
C1191      C1196   1.401       .  A
C1192      C1193   1.403       .  A
C1192      H1201   1.084       .  S
C1193      C1194   1.409       .  A
C1193      H1202   1.082       .  S
C1194      C1195   1.409       .  A
C1195      C1196   1.402       .  A
C1195      H1203   1.083       .  S
C1196      H1204   1.083       .  S
C1205      C1206   1.410       .  A
C1205      C1210   1.410       .  A
C1206      C1207   1.401       .  A
C1206      H1219   1.081       .  S
C1207      C1208   1.400       .  A
C1207      H1220   1.084       .  S
C1208      C1209   1.402       .  A
C1208      C1211   1.450       .  S
C1209      C1210   1.404       .  A
C1209      H1221   1.082       .  S
C1210      H1222   1.083       .  S
C1211      C1212   1.212       .  T
C1212      C1213   1.451       .  S
C1213      C1214   1.401       .  A
C1213      C1218   1.402       .  A
C1214      C1215   1.403       .  A
C1214      H1223   1.084       .  S
C1215      C1216   1.410       .  A
C1215      H1224   1.082       .  S
C1216      C1217   1.409       .  A
C1217      C1218   1.403       .  A
C1217      H1225   1.083       .  S
C1218      H1226   1.083       .  S
C1227      C1228   1.409       .  A
C1227      C1232   1.409       .  A
C1228      C1229   1.401       .  A
C1228      H1241   1.083   1_455  S
C1229      C1230   1.401       .  A
C1229      H1242   1.083   1_455  S
C1230      C1231   1.399       .  A
C1230      C1233   1.443       .  S
C1231      C1232   1.398       .  A
C1231      H1243   1.084       .  S
C1232      H1244   1.083       .  S
C1233      C1234   1.208       .  T
C1234      C1235   1.443       .  S
C1235      C1236   1.401       .  A
C1235      C1240   1.399       .  A
C1236      C1237   1.401       .  A
C1236      H1245   1.084       .  S
C1237      C1238   1.407       .  A
C1237      H1246   1.082       .  S
C1238      C1239   1.409       .  A
C1239      C1240   1.398       .  A
C1239      H1247   1.084       .  S
C1240      H1248   1.082       .  S
C1249      C1250   1.407       .  A
C1249      C1254   1.407       .  A
C1250      C1251   1.397       .  A
C1250      H1263   1.084       .  S
C1251      C1252   1.399       .  A
C1251      H1264   1.083       .  S
C1252      C1253   1.402       .  A
C1252      C1255   1.443       .  S
C1253      C1254   1.402       .  A
C1253      H1265   1.084       .  S
C1254      H1266   1.082       .  S
C1255      C1256   1.208       .  T
C1256      C1257   1.443       .  S
C1257      C1258   1.399       .  A
C1257      C1262   1.401       .  A
C1258      C1259   1.398       .  A
C1258      H1267   1.083       .  S
C1259      C1260   1.410       .  A
C1259      H1268   1.084       .  S
C1260      C1261   1.408       .  A
C1261      C1262   1.400       .  A
C1261      H1269   1.082       .  S
C1262      H1270   1.084       .  S
C1271      C1272   1.409       .  A
C1271      C1276   1.409       .  A
C1272      C1273   1.403       .  A
C1272      H1285   1.083       .  S
C1273      C1274   1.402       .  A
C1273      H1286   1.083       .  S
C1274      C1275   1.401       .  A
C1274      C1277   1.451       .  S
C1275      C1276   1.403       .  A
C1275      H1287   1.084       .  S
C1276      H1288   1.082       .  S
C1277      C1278   1.213       .  T
C1278      C1279   1.451       .  S
C1279      C1280   1.401       .  A
C1279      C1284   1.402       .  A
C1280      C1281   1.402       .  A
C1280      H1289   1.084       .  S
C1281      C1282   1.410       .  A
C1281      H1290   1.082       .  S
C1282      C1283   1.410       .  A
C1283      C1284   1.403       .  A
C1283      H1291   1.083       .  S
C1284      H1292   1.083       .  S
C1293      C1294   1.410   1_455  A
C1293      C1298   1.408       .  A
C1294      C1295   1.398       .  A
C1294      H1307   1.082       .  S
C1295      C1296   1.398   1_655  A
C1295      H1308   1.084       .  S
C1296      C1297   1.403       .  A
C1296      C1299   1.445   1_455  S
C1297      C1298   1.404       .  A
C1297      H1309   1.083       .  S
C1298      H1310   1.083       .  S
C1299      C1300   1.209       .  T
C1300      C1301   1.445       .  S
C1301      C1302   1.402       .  A
C1301      C1306   1.399   1_655  A
C1302      C1303   1.403       .  A
C1302      H1311   1.083       .  S
C1303      C1304   1.408       .  A
C1303      H1312   1.083       .  S
C1304      C1305   1.408   1_655  A
C1305      C1306   1.398       .  A
C1305      H1313   1.083       .  S
C1306      H1314   1.084       .  S
C1315      C1316   1.408       .  A
C1315      C1320   1.408       .  A
C1316      C1317   1.396       .  A
C1316      H1329   1.084       .  S
C1317      C1318   1.398       .  A
C1317      H1330   1.082       .  S
C1318      C1319   1.402       .  A
C1318      C1321   1.443       .  S
C1319      C1320   1.403       .  A
C1319      H1331   1.084       .  S
C1320      H1332   1.081       .  S
C1321      C1322   1.208       .  T
C1322      C1323   1.443       .  S
C1323      C1324   1.399       .  A
C1323      C1328   1.401       .  A
C1324      C1325   1.398       .  A
C1324      H1333   1.083       .  S
C1325      C1326   1.409       .  A
C1325      H1334   1.083       .  S
C1326      C1327   1.408   1_565  A
C1327      C1328   1.401   1_545  A
C1327      H1335   1.082       .  S
C1328      H1336   1.084       .  S
C1337      C1338   1.410       .  A
C1337      C1342   1.409       .  A
C1338      C1339   1.401       .  A
C1338      H1351   1.083       .  S
C1339      C1340   1.400       .  A
C1339      H1352   1.083       .  S
C1340      C1341   1.401       .  A
C1340      C1343   1.447       .  S
C1341      C1342   1.402       .  A
C1341      H1353   1.084       .  S
C1342      H1354   1.082       .  S
C1343      C1344   1.210       .  T
C1344      C1345   1.447       .  S
C1345      C1346   1.400       .  A
C1345      C1350   1.402       .  A
C1346      C1347   1.400       .  A
C1346      H1355   1.083       .  S
C1347      C1348   1.408       .  A
C1347      H1356   1.083       .  S
C1348      C1349   1.409       .  A
C1349      C1350   1.403       .  A
C1349      H1357   1.082       .  S
C1350      H1358   1.084       .  S
C1359      C1360   1.407       .  A
C1359      C1364   1.407       .  A
C1360      C1361   1.403       .  A
C1360      H1373   1.082       .  S
C1361      C1362   1.402       .  A
C1361      H1374   1.084       .  S
C1362      C1363   1.398       .  A
C1362      C1365   1.443       .  S
C1363      C1364   1.396       .  A
C1363      H1375   1.083       .  S
C1364      H1376   1.083       .  S
C1365      C1366   1.208       .  T
C1366      C1367   1.443       .  S
C1367      C1368   1.401       .  A
C1367      C1372   1.398       .  A
C1368      C1369   1.401       .  A
C1368      H1377   1.084       .  S
C1369      C1370   1.408       .  A
C1369      H1378   1.082       .  S
C1370      C1371   1.410       .  A
C1371      C1372   1.399       .  A
C1371      H1379   1.083       .  S
C1372      H1380   1.083       .  S
C1381      C1382   1.408       .  A
C1381      C1386   1.409       .  A
C1382      C1383   1.402       .  A
C1382      H1395   1.082       .  S
C1383      C1384   1.401       .  A
C1383      H1396   1.083       .  S
C1384      C1385   1.399       .  A
C1384      C1387   1.444       .  S
C1385      C1386   1.398       .  A
C1385      H1397   1.083   1_455  S
C1386      H1398   1.083   1_455  S
C1387      C1388   1.209       .  T
C1388      C1389   1.444       .  S
C1389      C1390   1.398       .  A
C1389      C1394   1.402   1_455  A
C1390      C1391   1.397       .  A
C1390      H1399   1.085       .  S
C1391      C1392   1.410       .  A
C1391      H1400   1.082       .  S
C1392      C1393   1.408   1_455  A
C1393      C1394   1.403       .  A
C1393      H1401   1.084       .  S
C1394      H1402   1.082       .  S
C1403      C1404   1.408       .  A
C1403      C1408   1.410       .  A
C1404      C1405   1.402       .  A
C1404      H1417   1.082       .  S
C1405      C1406   1.401       .  A
C1405      H1418   1.084       .  S
C1406      C1407   1.399       .  A
C1406      C1409   1.445       .  S
C1407      C1408   1.399       .  A
C1407      H1419   1.083       .  S
C1408      H1420   1.084       .  S
C1409      C1410   1.209       .  T
C1410      C1411   1.445       .  S
C1411      C1412   1.402       .  A
C1411      C1416   1.400       .  A
C1412      C1413   1.401       .  A
C1412      H1421   1.084       .  S
C1413      C1414   1.407       .  A
C1413      H1422   1.082       .  S
C1414      C1415   1.409       .  A
C1415      C1416   1.400       .  A
C1415      H1423   1.083       .  S
C1416      H1424   1.083       .  S
C1425      C1426   1.409       .  A
C1425      C1430   1.410       .  A
C1426      C1427   1.402       .  A
C1426      H1439   1.083   1_565  S
C1427      C1428   1.401       .  A
C1427      H1440   1.083       .  S
C1428      C1429   1.400       .  A
C1428      C1431   1.448       .  S
C1429      C1430   1.401       .  A
C1429      H1441   1.084       .  S
C1430      H1442   1.082       .  S
C1431      C1432   1.211       .  T
C1432      C1433   1.448       .  S
C1433      C1434   1.400       .  A
C1433      C1438   1.401       .  A
C1434      C1435   1.401       .  A
C1434      H1443   1.082       .  S
C1435      C1436   1.409       .  A
C1435      H1444   1.084       .  S
C1436      C1437   1.410       .  A
C1437      C1438   1.402       .  A
C1437      H1445   1.081       .  S
C1438      H1446   1.084       .  S
C1447      C1448   1.408       .  A
C1447      C1452   1.406       .  A
C1448      C1449   1.398       .  A
C1448      H1461   1.082       .  S
C1449      C1450   1.399       .  A
C1449      H1462   1.084       .  S
C1450      C1451   1.403       .  A
C1450      C1453   1.445       .  S
C1451      C1452   1.402       .  A
C1451      H1463   1.083       .  S
C1452      H1464   1.084       .  S
C1453      C1454   1.209       .  T
C1454      C1455   1.445       .  S
C1455      C1456   1.398       .  A
C1455      C1460   1.402   1_565  A
C1456      C1457   1.398       .  A
C1456      H1465   1.085       .  S
C1457      C1458   1.410   1_565  A
C1457      H1466   1.082       .  S
C1458      C1459   1.408       .  A
C1459      C1460   1.403       .  A
C1459      H1467   1.084       .  S
C1460      H1468   1.082       .  S
C1469      C1470   1.410       .  A
C1469      C1474   1.408       .  A
C1470      C1471   1.398       .  A
C1470      H1483   1.084       .  S
C1471      C1472   1.398       .  A
C1471      H1484   1.083       .  S
C1472      C1473   1.402       .  A
C1472      C1475   1.444       .  S
C1473      C1474   1.402       .  A
C1473      H1485   1.084       .  S
C1474      H1486   1.082       .  S
C1475      C1476   1.209       .  T
C1476      C1477   1.445       .  S
C1477      C1478   1.399       .  A
C1477      C1482   1.402       .  A
C1478      C1479   1.397       .  A
C1478      H1487   1.082       .  S
C1479      C1480   1.408       .  A
C1479      H1488   1.084       .  S
C1480      C1481   1.408       .  A
C1481      C1482   1.403       .  A
C1481      H1489   1.081       .  S
C1482      H1490   1.084       .  S
C1491      C1492   1.407       .  A
C1491      C1496   1.409       .  A
C1492      C1493   1.401       .  A
C1492      H1505   1.084       .  S
C1493      C1494   1.401       .  A
C1493      H1506   1.083       .  S
C1494      C1495   1.398       .  A
C1494      C1497   1.440       .  S
C1495      C1496   1.397       .  A
C1495      H1507   1.084       .  S
C1496      H1508   1.082       .  S
C1497      C1498   1.206       .  T
C1498      C1499   1.440       .  S
C1499      C1500   1.401       .  A
C1499      C1504   1.398       .  A
C1500      C1501   1.401       .  A
C1500      H1509   1.082       .  S
C1501      C1502   1.407       .  A
C1501      H1510   1.084       .  S
C1502      C1503   1.409       .  A
C1503      C1504   1.397       .  A
C1503      H1511   1.082       .  S
C1504      H1512   1.085       .  S
C1513      C1514   1.409       .  A
C1513      C1518   1.409       .  A
C1514      C1515   1.401       .  A
C1514      H1527   1.082       .  S
C1515      C1516   1.401       .  A
C1515      H1528   1.084       .  S
C1516      C1517   1.400       .  A
C1516      C1519   1.445       .  S
C1517      C1518   1.400       .  A
C1517      H1529   1.083       .  S
C1518      H1530   1.083       .  S
C1519      C1520   1.209       .  T
C1520      C1521   1.445       .  S
C1521      C1522   1.400       .  A
C1521      C1526   1.401       .  A
C1522      C1523   1.400       .  A
C1522      H1531   1.083       .  S
C1523      C1524   1.408       .  A
C1523      H1532   1.083       .  S
C1524      C1525   1.409       .  A
C1525      C1526   1.401       .  A
C1525      H1533   1.083       .  S
C1526      H1534   1.084       .  S
C1535      C1536   1.410   1_545  A
C1535      C1540   1.410       .  A
C1536      C1537   1.403       .  A
C1536      H1549   1.083       .  S
C1537      C1538   1.402       .  A
C1537      H1550   1.083       .  S
C1538      C1539   1.401   1_565  A
C1538      C1541   1.451       .  S
C1539      C1540   1.403       .  A
C1539      H1551   1.084       .  S
C1540      H1552   1.082       .  S
C1541      C1542   1.213       .  T
C1542      C1543   1.451       .  S
C1543      C1544   1.401       .  A
C1543      C1548   1.402       .  A
C1544      C1545   1.402       .  A
C1544      H1553   1.083   1_565  S
C1545      C1546   1.410       .  A
C1545      H1554   1.083       .  S
C1546      C1547   1.410       .  A
C1547      C1548   1.404       .  A
C1547      H1555   1.082       .  S
C1548      H1556   1.084       .  S
C1557      C1558   1.408       .  A
C1557      C1562   1.410       .  A
C1558      C1559   1.403       .  A
C1558      H1571   1.083       .  S
C1559      C1560   1.402       .  A
C1559      H1572   1.083       .  S
C1560      C1561   1.399   1_545  A
C1560      C1563   1.446   1_545  S
C1561      C1562   1.399   1_565  A
C1561      H1573   1.084       .  S
C1562      H1574   1.082   1_545  S
C1563      C1564   1.210       .  T
C1564      C1565   1.446       .  S
C1565      C1566   1.403       .  A
C1565      C1570   1.399       .  A
C1566      C1567   1.403       .  A
C1566      H1575   1.082       .  S
C1567      C1568   1.407       .  A
C1567      H1576   1.084       .  S
C1568      C1569   1.409       .  A
C1569      C1570   1.398       .  A
C1569      H1577   1.082       .  S
C1570      H1578   1.085       .  S
C1579      C1580   1.407       .  A
C1579      C1584   1.408       .  A
C1580      C1581   1.400       .  A
C1580      H1593   1.083       .  S
C1581      C1582   1.401       .  A
C1581      H1594   1.083       .  S
C1582      C1583   1.400       .  A
C1582      C1585   1.442       .  S
C1583      C1584   1.399       .  A
C1583      H1595   1.084       .  S
C1584      H1596   1.083       .  S
C1585      C1586   1.208       .  T
C1586      C1587   1.442       .  S
C1587      C1588   1.400       .  A
C1587      C1592   1.399       .  A
C1588      C1589   1.400       .  A
C1588      H1597   1.084       .  S
C1589      C1590   1.407       .  A
C1589      H1598   1.082       .  S
C1590      C1591   1.410       .  A
C1591      C1592   1.399       .  A
C1591      H1599   1.084       .  S
C1592      H1600   1.083       .  S
C1601      C1602   1.410       .  A
C1601      C1606   1.409       .  A
C1602      C1603   1.401       .  A
C1602      H1615   1.081       .  S
C1603      C1604   1.400       .  A
C1603      H1616   1.085       .  S
C1604      C1605   1.401       .  A
C1604      C1607   1.448       .  S
C1605      C1606   1.402       .  A
C1605      H1617   1.082       .  S
C1606      H1618   1.084       .  S
C1607      C1608   1.211       .  T
C1608      C1609   1.448       .  S
C1609      C1610   1.400       .  A
C1609      C1614   1.401       .  A
C1610      C1611   1.401       .  A
C1610      H1619   1.084       .  S
C1611      C1612   1.409       .  A
C1611      H1620   1.082       .  S
C1612      C1613   1.409       .  A
C1613      C1614   1.403       .  A
C1613      H1621   1.083       .  S
C1614      H1622   1.083       .  S
C1623      C1624   1.408       .  A
C1623      C1628   1.410       .  A
C1624      C1625   1.402       .  A
C1624      H1637   1.082       .  S
C1625      C1626   1.402       .  A
C1625      H1638   1.084       .  S
C1626      C1627   1.398       .  A
C1626      C1629   1.444       .  S
C1627      C1628   1.398       .  A
C1627      H1639   1.083       .  S
C1628      H1640   1.084       .  S
C1629      C1630   1.209       .  T
C1630      C1631   1.444       .  S
C1631      C1632   1.403       .  A
C1631      C1636   1.399       .  A
C1632      C1633   1.403       .  A
C1632      H1641   1.084       .  S
C1633      C1634   1.407       .  A
C1633      H1642   1.082       .  S
C1634      C1635   1.407       .  A
C1635      C1636   1.397       .  A
C1635      H1643   1.084       .  S
C1636      H1644   1.083       .  S
C1645      C1646   1.407       .  A
C1645      C1650   1.409       .  A
C1646      C1647   1.402       .  A
C1646      H1659   1.084       .  S
C1647      C1648   1.402       .  A
C1647      H1660   1.082       .  S
C1648      C1649   1.398       .  A
C1648      C1651   1.443       .  S
C1649      C1650   1.398       .  A
C1649      H1661   1.085       .  S
C1650      H1662   1.082       .  S
C1651      C1652   1.208       .  T
C1652      C1653   1.443       .  S
C1653      C1654   1.402       .  A
C1653      C1658   1.398       .  A
C1654      C1655   1.402       .  A
C1654      H1663   1.082       .  S
C1655      C1656   1.406       .  A
C1655      H1664   1.084       .  S
C1656      C1657   1.409       .  A
C1657      C1658   1.397       .  A
C1657      H1665   1.082       .  S
C1658      H1666   1.085       .  S
C1667      C1668   1.406       .  A
C1667      C1672   1.407       .  A
C1668      C1669   1.404       .  A
C1668      H1681   1.083   1_565  S
C1669      C1670   1.403       .  A
C1669      H1682   1.083       .  S
C1670      C1671   1.399       .  A
C1670      C1673   1.445       .  S
C1671      C1672   1.397       .  A
C1671      H1683   1.083       .  S
C1672      H1684   1.083       .  S
C1673      C1674   1.209       .  T
C1674      C1675   1.445       .  S
C1675      C1676   1.402       .  A
C1675      C1680   1.399       .  A
C1676      C1677   1.402       .  A
C1676      H1685   1.084       .  S
C1677      C1678   1.408       .  A
C1677      H1686   1.082       .  S
C1678      C1679   1.410       .  A
C1679      C1680   1.399       .  A
C1679      H1687   1.083       .  S
C1680      H1688   1.083       .  S
C1689      C1690   1.409       .  A
C1689      C1694   1.408       .  A
C1690      C1691   1.401       .  A
C1690      H1703   1.084       .  S
C1691      C1692   1.401       .  A
C1691      H1704   1.082       .  S
C1692      C1693   1.400       .  A
C1692      C1695   1.445       .  S
C1693      C1694   1.401       .  A
C1693      H1705   1.085       .  S
C1694      H1706   1.081       .  S
C1695      C1696   1.209       .  T
C1696      C1697   1.445       .  S
C1697      C1698   1.401       .  A
C1697      C1702   1.400       .  A
C1698      C1699   1.401       .  A
C1698      H1707   1.083       .  S
C1699      C1700   1.408       .  A
C1699      H1708   1.083       .  S
C1700      C1701   1.409       .  A
C1701      C1702   1.400       .  A
C1701      H1709   1.082       .  S
C1702      H1710   1.084       .  S
C1711      C1712   1.408       .  A
C1711      C1716   1.408       .  A
C1712      C1713   1.399       .  A
C1712      H1725   1.083       .  S
C1713      C1714   1.400       .  A
C1713      H1726   1.083       .  S
C1714      C1715   1.403       .  A
C1714      C1717   1.448       .  S
C1715      C1716   1.404       .  A
C1715      H1727   1.083       .  S
C1716      H1728   1.083       .  S
C1717      C1718   1.211       .  T
C1718      C1719   1.448       .  S
C1719      C1720   1.403       .  A
C1719      C1724   1.399       .  A
C1720      C1721   1.404       .  A
C1720      H1729   1.083       .  S
C1721      C1722   1.409       .  A
C1721      H1730   1.083       .  S
C1722      C1723   1.410       .  A
C1723      C1724   1.399       .  A
C1723      H1731   1.082       .  S
C1724      H1732   1.084       .  S
C1733      C1734   1.408       .  A
C1733      C1738   1.408       .  A
C1734      C1735   1.398       .  A
C1734      H1747   1.084       .  S
C1735      C1736   1.399       .  A
C1735      H1748   1.082       .  S
C1736      C1737   1.402       .  A
C1736      C1739   1.444       .  S
C1737      C1738   1.403       .  A
C1737      H1749   1.084       .  S
C1738      H1750   1.081       .  S
C1739      C1740   1.209       .  T
C1740      C1741   1.444       .  S
C1741      C1742   1.398       .  A
C1741      C1746   1.402       .  A
C1742      C1743   1.398       .  A
C1742      H1751   1.083       .  S
C1743      C1744   1.410       .  A
C1743      H1752   1.083       .  S
C1744      C1745   1.408       .  A
C1745      C1746   1.402       .  A
C1745      H1753   1.082       .  S
C1746      H1754   1.084       .  S
C1755      C1756   1.408       .  A
C1755      C1760   1.410       .  A
C1756      C1757   1.402       .  A
C1756      H1769   1.084       .  S
C1757      C1758   1.402       .  A
C1757      H1770   1.082       .  S
C1758      C1759   1.399       .  A
C1758      C1761   1.444       .  S
C1759      C1760   1.398       .  A
C1759      H1771   1.085       .  S
C1760      H1772   1.082       .  S
C1761      C1762   1.209       .  T
C1762      C1763   1.444   1_554  S
C1763      C1764   1.403       .  A
C1763      C1768   1.399       .  A
C1764      C1765   1.403       .  A
C1764      H1773   1.082       .  S
C1765      C1766   1.406       .  A
C1765      H1774   1.084       .  S
C1766      C1767   1.407       .  A
C1767      C1768   1.397       .  A
C1767      H1775   1.082       .  S
C1768      H1776   1.085       .  S
C1777      C1778   1.406       .  A
C1777      C1782   1.409       .  A
C1778      C1779   1.402       .  A
C1778      H1791   1.083       .  S
C1779      C1780   1.402       .  A
C1779      H1792   1.083       .  S
C1780      C1781   1.398       .  A
C1780      C1783   1.443       .  S
C1781      C1782   1.397       .  A
C1781      H1793   1.084       .  S
C1782      H1794   1.083       .  S
C1783      C1784   1.208       .  T
C1784      C1785   1.443       .  S
C1785      C1786   1.398       .  A
C1785      C1790   1.402       .  A
C1786      C1787   1.397       .  A
C1786      H1795   1.083       .  S
C1787      C1788   1.409       .  A
C1787      H1796   1.084       .  S
C1788      C1789   1.409       .  A
C1789      C1790   1.402       .  A
C1789      H1797   1.082       .  S
C1790      H1798   1.084       .  S
C1799      C1800   1.409       .  A
C1799      C1804   1.409       .  A
C1800      C1801   1.402       .  A
C1800      H1813   1.081       .  S
C1801      C1802   1.401       .  A
C1801      H1814   1.084       .  S
C1802      C1803   1.400       .  A
C1802      C1805   1.448       .  S
C1803      C1804   1.401       .  A
C1803      H1815   1.083       .  S
C1804      H1816   1.084       .  S
C1805      C1806   1.211       .  T
C1806      C1807   1.448       .  S
C1807      C1808   1.400       .  A
C1807      C1812   1.401       .  A
C1808      C1809   1.401       .  A
C1808      H1817   1.084       .  S
C1809      C1810   1.410       .  A
C1809      H1818   1.082       .  S
C1810      C1811   1.409       .  A
C1811      C1812   1.402       .  A
C1811      H1819   1.083       .  S
C1812      H1820   1.083       .  S
C1821      C1822   1.407       .  A
C1821      C1826   1.408       .  A
C1822      C1823   1.402       .  A
C1822      H1835   1.081       .  S
C1823      C1824   1.401       .  A
C1823      H1836   1.085       .  S
C1824      C1825   1.399       .  A
C1824      C1827   1.442       .  S
C1825      C1826   1.397       .  A
C1825      H1837   1.082       .  S
C1826      H1838   1.085       .  S
C1827      C1828   1.207       .  T
C1828      C1829   1.442       .  S
C1829      C1830   1.401       .  A
C1829      C1834   1.398       .  A
C1830      C1831   1.401       .  A
C1830      H1839   1.084       .  S
C1831      C1832   1.408       .  A
C1831      H1840   1.082       .  S
C1832      C1833   1.409       .  A
C1833      C1834   1.397       .  A
C1833      H1841   1.084       .  S
C1834      H1842   1.083       .  S
C1843      C1844   1.409       .  A
C1843      C1848   1.409       .  A
C1844      C1845   1.402       .  A
C1844      H1857   1.083       .  S
C1845      C1846   1.401       .  A
C1845      H1858   1.083       .  S
C1846      C1847   1.400       .  A
C1846      C1849   1.446       .  S
C1847      C1848   1.400       .  A
C1847      H1859   1.084       .  S
C1848      H1860   1.083       .  S
C1849      C1850   1.210       .  T
C1850      C1851   1.446       .  S
C1851      C1852   1.401       .  A
C1851      C1856   1.401       .  A
C1852      C1853   1.401       .  A
C1852      H1861   1.084       .  S
C1853      C1854   1.408       .  A
C1853      H1862   1.083       .  S
C1854      C1855   1.407       .  A
C1855      C1856   1.400       .  A
C1855      H1863   1.083       .  S
C1856      H1864   1.083       .  S
C1865      C1866   1.407       .  A
C1865      C1870   1.409       .  A
C1866      C1867   1.401       .  A
C1866      H1879   1.084       .  S
C1867      C1868   1.401       .  A
C1867      H1880   1.082       .  S
C1868      C1869   1.398       .  A
C1868      C1871   1.441       .  S
C1869      C1870   1.397       .  A
C1869      H1881   1.085       .  S
C1870      H1882   1.082       .  S
C1871      C1872   1.207       .  T
C1872      C1873   1.441       .  S
C1873      C1874   1.398       .  A
C1873      C1878   1.402       .  A
C1874      C1875   1.396       .  A
C1874      H1883   1.083       .  S
C1875      C1876   1.408   1_556  A
C1875      H1884   1.083       .  S
C1876      C1877   1.407       .  A
C1877      C1878   1.402   1_554  A
C1877      H1885   1.082       .  S
C1878      H1886   1.084       .  S
C1887      C1888   1.408       .  A
C1887      C1892   1.409       .  A
C1888      C1889   1.401       .  A
C1888      H1901   1.082       .  S
C1889      C1890   1.401       .  A
C1889      H1902   1.084       .  S
C1890      C1891   1.400       .  A
C1890      C1893   1.445       .  S
C1891      C1892   1.400       .  A
C1891      H1903   1.083       .  S
C1892      H1904   1.084       .  S
C1893      C1894   1.209       .  T
C1894      C1895   1.445       .  S
C1895      C1896   1.402       .  A
C1895      C1900   1.399       .  A
C1896      C1897   1.402       .  A
C1896      H1905   1.084       .  S
C1897      C1898   1.407       .  A
C1897      H1906   1.082       .  S
C1898      C1899   1.410       .  A
C1899      C1900   1.399       .  A
C1899      H1907   1.084       .  S
C1900      H1908   1.083       .  S
C1909      C1910   1.410       .  A
C1909      C1914   1.410       .  A
C1910      C1911   1.402       .  A
C1910      H1923   1.083       .  S
C1911      C1912   1.401       .  A
C1911      H1924   1.084       .  S
C1912      C1913   1.401       .  A
C1912      C1915   1.449       .  S
C1913      C1914   1.402       .  A
C1913      H1925   1.083       .  S
C1914      H1926   1.083       .  S
C1915      C1916   1.212       .  T
C1916      C1917   1.449       .  S
C1917      C1918   1.401       .  A
C1917      C1922   1.401       .  A
C1918      C1919   1.402       .  A
C1918      H1927   1.083       .  S
C1919      C1920   1.408       .  A
C1919      H1928   1.083       .  S
C1920      C1921   1.409       .  A
C1921      C1922   1.403       .  A
C1921      H1929   1.083       .  S
C1922      H1930   1.083       .  S
C1931      C1932   1.410       .  A
C1931      C1936   1.408       .  A
C1932      C1933   1.396       .  A
C1932      H1945   1.082       .  S
C1933      C1934   1.398       .  A
C1933      H1946   1.085       .  S
C1934      C1935   1.403       .  A
C1934      C1937   1.445       .  S
C1935      C1936   1.404       .  A
C1935      H1947   1.082       .  S
C1936      H1948   1.084       .  S
C1937      C1938   1.209   1_455  T
C1938      C1939   1.445       .  S
C1939      C1940   1.402       .  A
C1939      C1944   1.400   1_655  A
C1940      C1941   1.402       .  A
C1940      H1949   1.084       .  S
C1941      C1942   1.407       .  A
C1941      H1950   1.082       .  S
C1942      C1943   1.407   1_655  A
C1943      C1944   1.398       .  A
C1943      H1951   1.084       .  S
C1944      H1952   1.083       .  S
C1953      C1954   1.409       .  A
C1953      C1958   1.408   1_455  A
C1954      C1955   1.395       .  A
C1954      H1967   1.082       .  S
C1955      C1956   1.397       .  A
C1955      H1968   1.084       .  S
C1956      C1957   1.402   1_455  A
C1956      C1959   1.441       .  S
C1957      C1958   1.403       .  A
C1957      H1969   1.083       .  S
C1958      H1970   1.084       .  S
C1959      C1960   1.207       .  T
C1960      C1961   1.441       .  S
C1961      C1962   1.401       .  A
C1961      C1966   1.399       .  A
C1962      C1963   1.401       .  A
C1962      H1971   1.083       .  S
C1963      C1964   1.407       .  A
C1963      H1972   1.083       .  S
C1964      C1965   1.407       .  A
C1965      C1966   1.397       .  A
C1965      H1973   1.083   1_455  S
C1966      H1974   1.084   1_455  S
C1975      C1976   1.409       .  A
C1975      C1980   1.410       .  A
C1976      C1977   1.402       .  A
C1976      H1989   1.082       .  S
C1977      C1978   1.401       .  A
C1977      H1990   1.084       .  S
C1978      C1979   1.401       .  A
C1978      C1981   1.447       .  S
C1979      C1980   1.401       .  A
C1979      H1991   1.083       .  S
C1980      H1992   1.083       .  S
C1981      C1982   1.210       .  T
C1982      C1983   1.447       .  S
C1983      C1984   1.401       .  A
C1983      C1988   1.401       .  A
C1984      C1985   1.401       .  A
C1984      H1993   1.083       .  S
C1985      C1986   1.409       .  A
C1985      H1994   1.083       .  S
C1986      C1987   1.409       .  A
C1987      C1988   1.401       .  A
C1987      H1995   1.082       .  S
C1988      H1996   1.084       .  S
C1997      C1998   1.409       .  A
C1997      C2002   1.409       .  A
C1998      C1999   1.401       .  A
C1998      H2011   1.083       .  S
C1999      C2000   1.401       .  A
C1999      H2012   1.084       .  S
C2000      C2001   1.401       .  A
C2000      C2003   1.447       .  S
C2001      C2002   1.401       .  A
C2001      H2013   1.083       .  S
C2002      H2014   1.083       .  S
C2003      C2004   1.210       .  T
C2004      C2005   1.447       .  S
C2005      C2006   1.401       .  A
C2005      C2010   1.400       .  A
C2006      C2007   1.401       .  A
C2006      H2015   1.083       .  S
C2007      C2008   1.409       .  A
C2007      H2016   1.083       .  S
C2008      C2009   1.408       .  A
C2009      C2010   1.401       .  A
C2009      H2017   1.082       .  S
C2010      H2018   1.084       .  S
C2019      C2020   1.407       .  A
C2019      C2024   1.408       .  A
C2020      C2021   1.401       .  A
C2020      H2033   1.083       .  S
C2021      C2022   1.401       .  A
C2021      H2034   1.083       .  S
C2022      C2023   1.398       .  A
C2022      C2025   1.439       .  S
C2023      C2024   1.395       .  A
C2023      H2035   1.084       .  S
C2024      H2036   1.083       .  S
C2025      C2026   1.206       .  T
C2026      C2027   1.439       .  S
C2027      C2028   1.397       .  A
C2027      C2032   1.401       .  A
C2028      C2029   1.395       .  A
C2028      H2037   1.084       .  S
C2029      C2030   1.408       .  A
C2029      H2038   1.082       .  S
C2030      C2031   1.407       .  A
C2031      C2032   1.401       .  A
C2031      H2039   1.084       .  S
C2032      H2040   1.083       .  S
C2041      C2042   1.409       .  A
C2041      C2046   1.409       .  A
C2042      C2043   1.401       .  A
C2042      H2055   1.083       .  S
C2043      C2044   1.400       .  A
C2043      H2056   1.083       .  S
C2044      C2045   1.400       .  A
C2044      C2047   1.445       .  S
C2045      C2046   1.400       .  A
C2045      H2057   1.084       .  S
C2046      H2058   1.083       .  S
C2047      C2048   1.209       .  T
C2048      C2049   1.445       .  S
C2049      C2050   1.401       .  A
C2049      C2054   1.400       .  A
C2050      C2051   1.401       .  A
C2050      H2059   1.084       .  S
C2051      C2052   1.407       .  A
C2051      H2060   1.082       .  S
C2052      C2053   1.408       .  A
C2053      C2054   1.400       .  A
C2053      H2061   1.084       .  S
C2054      H2062   1.083       .  S
C2063      C2064   1.407       .  A
C2063      C2068   1.410       .  A
C2064      C2065   1.401       .  A
C2064      H2077   1.085       .  S
C2065      C2066   1.402       .  A
C2065      H2078   1.082       .  S
C2066      C2067   1.397       .  A
C2066      C2069   1.441       .  S
C2067      C2068   1.397       .  A
C2067      H2079   1.085       .  S
C2068      H2080   1.081       .  S
C2069      C2070   1.207       .  T
C2070      C2071   1.441       .  S
C2071      C2072   1.402       .  A
C2071      C2076   1.398       .  A
C2072      C2073   1.402       .  A
C2072      H2081   1.083       .  S
C2073      C2074   1.406       .  A
C2073      H2082   1.083       .  S
C2074      C2075   1.407       .  A
C2075      C2076   1.396       .  A
C2075      H2083   1.083       .  S
C2076      H2084   1.084       .  S
C2085      C2086   1.407       .  A
C2085      C2090   1.408       .  A
C2086      C2087   1.403       .  A
C2086      H2099   1.083       .  S
C2087      C2088   1.403       .  A
C2087      H2100   1.083       .  S
C2088      C2089   1.399       .  A
C2088      C2091   1.444       .  S
C2089      C2090   1.398       .  A
C2089      H2101   1.084       .  S
C2090      H2102   1.083       .  S
C2091      C2092   1.209       .  T
C2092      C2093   1.444       .  S
C2093      C2094   1.402       .  A
C2093      C2098   1.399       .  A
C2094      C2095   1.402       .  A
C2094      H2103   1.083       .  S
C2095      C2096   1.408       .  A
C2095      H2104   1.083       .  S
C2096      C2097   1.410       .  A
C2097      C2098   1.398       .  A
C2097      H2105   1.082       .  S
C2098      H2106   1.084       .  S
C2107      C2108   1.408       .  A
C2107      C2112   1.407       .  A
C2108      C2109   1.398       .  A
C2108      H2121   1.083       .  S
C2109      C2110   1.400       .  A
C2109      H2122   1.084       .  S
C2110      C2111   1.402       .  A
C2110      C2113   1.446       .  S
C2111      C2112   1.403       .  A
C2111      H2123   1.083       .  S
C2112      H2124   1.083       .  S
C2113      C2114   1.210       .  T
C2114      C2115   1.446       .  S
C2115      C2116   1.403       .  A
C2115      C2120   1.398       .  A
C2116      C2117   1.404       .  A
C2116      H2125   1.082       .  S
C2117      C2118   1.408       .  A
C2117      H2126   1.084       .  S
C2118      C2119   1.410       .  A
C2119      C2120   1.398       .  A
C2119      H2127   1.082       .  S
C2120      H2128   1.085       .  S
C2129      C2130   1.407   1_565  A
C2129      C2134   1.409       .  A
C2130      C2131   1.399   1_545  A
C2130      H2143   1.083       .  S
C2131      C2132   1.400       .  A
C2131      H2144   1.083       .  S
C2132      C2133   1.399       .  A
C2132      C2135   1.441       .  S
C2133      C2134   1.398       .  A
C2133      H2145   1.084       .  S
C2134      H2146   1.083       .  S
C2135      C2136   1.207       .  T
C2136      C2137   1.441       .  S
C2137      C2138   1.402       .  A
C2137      C2142   1.399       .  A
C2138      C2139   1.402       .  A
C2138      H2147   1.083       .  S
C2139      C2140   1.407       .  A
C2139      H2148   1.083       .  S
C2140      C2141   1.407       .  A
C2141      C2142   1.396       .  A
C2141      H2149   1.083       .  S
C2142      H2150   1.084       .  S
C2151      C2152   1.409       .  A
C2151      C2156   1.410       .  A
C2152      C2153   1.401       .  A
C2152      H2165   1.082       .  S
C2153      C2154   1.401       .  A
C2153      H2166   1.084       .  S
C2154      C2155   1.401       .  A
C2154      C2157   1.448       .  S
C2155      C2156   1.402       .  A
C2155      H2167   1.083       .  S
C2156      H2168   1.083       .  S
C2157      C2158   1.211       .  T
C2158      C2159   1.448       .  S
C2159      C2160   1.401       .  A
C2159      C2164   1.401       .  A
C2160      C2161   1.402       .  A
C2160      H2169   1.084       .  S
C2161      C2162   1.410       .  A
C2161      H2170   1.082       .  S
C2162      C2163   1.409       .  A
C2163      C2164   1.401       .  A
C2163      H2171   1.083       .  S
C2164      H2172   1.083       .  S
C2173      C2174   1.408       .  A
C2173      C2178   1.406       .  A
C2174      C2175   1.398       .  A
C2174      H2187   1.083       .  S
C2175      C2176   1.399       .  A
C2175      H2188   1.083       .  S
C2176      C2177   1.402       .  A
C2176      C2179   1.443       .  S
C2177      C2178   1.402       .  A
C2177      H2189   1.084       .  S
C2178      H2190   1.083       .  S
C2179      C2180   1.208       .  T
C2180      C2181   1.443       .  S
C2181      C2182   1.401       .  A
C2181      C2186   1.399       .  A
C2182      C2183   1.401       .  A
C2182      H2191   1.084       .  S
C2183      C2184   1.408       .  A
C2183      H2192   1.082       .  S
C2184      C2185   1.410       .  A
C2185      C2186   1.398       .  A
C2185      H2193   1.084       .  S
C2186      H2194   1.083       .  S
C2195      C2196   1.407       .  A
C2195      C2200   1.408       .  A
C2196      C2197   1.402       .  A
C2196      H2209   1.082       .  S
C2197      C2198   1.402       .  A
C2197      H2210   1.084       .  S
C2198      C2199   1.398       .  A
C2198      C2201   1.442       .  S
C2199      C2200   1.397       .  A
C2199      H2211   1.083       .  S
C2200      H2212   1.083       .  S
C2201      C2202   1.208       .  T
C2202      C2203   1.442       .  S
C2203      C2204   1.401       .  A
C2203      C2208   1.398       .  A
C2204      C2205   1.401       .  A
C2204      H2213   1.083       .  S
C2205      C2206   1.408       .  A
C2205      H2214   1.083       .  S
C2206      C2207   1.409       .  A
C2207      C2208   1.397       .  A
C2207      H2215   1.083       .  S
C2208      H2216   1.084       .  S
C2217      C2218   1.406       .  A
C2217      C2222   1.408       .  A
C2218      C2219   1.402       .  A
C2218      H2231   1.084       .  S
C2219      C2220   1.402       .  A
C2219      H2232   1.082       .  S
C2220      C2221   1.399       .  A
C2220      C2223   1.444       .  S
C2221      C2222   1.398       .  A
C2221      H2233   1.085       .  S
C2222      H2234   1.082       .  S
C2223      C2224   1.208       .  T
C2224      C2225   1.444       .  S
C2225      C2226   1.398       .  A
C2225      C2230   1.402       .  A
C2226      C2227   1.397       .  A
C2226      H2235   1.084       .  S
C2227      C2228   1.410       .  A
C2227      H2236   1.083       .  S
C2228      C2229   1.408       .  A
C2229      C2230   1.402       .  A
C2229      H2237   1.083       .  S
C2230      H2238   1.083       .  S
C2239      C2240   1.410       .  A
C2239      C2244   1.409       .  A
C2240      C2241   1.403       .  A
C2240      H2253   1.083       .  S
C2241      C2242   1.401       .  A
C2241      H2254   1.083       .  S
C2242      C2243   1.401       .  A
C2242      C2245   1.450       .  S
C2243      C2244   1.402       .  A
C2243      H2255   1.084       .  S
C2244      H2256   1.082       .  S
C2245      C2246   1.212       .  T
C2246      C2247   1.450       .  S
C2247      C2248   1.401       .  A
C2247      C2252   1.402       .  A
C2248      C2249   1.402       .  A
C2248      H2257   1.083       .  S
C2249      C2250   1.410       .  A
C2249      H2258   1.083       .  S
C2250      C2251   1.409       .  A
C2251      C2252   1.403       .  A
C2251      H2259   1.082       .  S
C2252      H2260   1.084       .  S
C2261      C2262   1.409       .  A
C2261      C2266   1.410       .  A
C2262      C2263   1.403       .  A
C2262      H2275   1.083       .  S
C2263      C2264   1.402       .  A
C2263      H2276   1.083       .  S
C2264      C2265   1.399       .  A
C2264      C2267   1.446       .  S
C2265      C2266   1.399       .  A
C2265      H2277   1.083       .  S
C2266      H2278   1.083       .  S
C2267      C2268   1.210       .  T
C2268      C2269   1.446       .  S
C2269      C2270   1.400       .  A
C2269      C2274   1.403       .  A
C2270      C2271   1.399       .  A
C2270      H2279   1.084       .  S
C2271      C2272   1.408       .  A
C2271      H2280   1.083       .  S
C2272      C2273   1.406       .  A
C2273      C2274   1.403       .  A
C2273      H2281   1.083       .  S
C2274      H2282   1.083       .  S
C2283      C2284   1.409       .  A
C2283      C2288   1.410       .  A
C2284      C2285   1.403       .  A
C2284      H2297   1.083       .  S
C2285      C2286   1.402       .  A
C2285      H2298   1.083       .  S
C2286      C2287   1.399       .  A
C2286      C2289   1.447       .  S
C2287      C2288   1.400       .  A
C2287      H2299   1.084       .  S
C2288      H2300   1.083       .  S
C2289      C2290   1.210       .  T
C2290      C2291   1.447       .  S
C2291      C2292   1.400       .  A
C2291      C2296   1.402       .  A
C2292      C2293   1.400       .  A
C2292      H2301   1.082       .  S
C2293      C2294   1.409       .  A
C2293      H2302   1.084       .  S
C2294      C2295   1.407       .  A
C2295      C2296   1.403       .  A
C2295      H2303   1.082       .  S
C2296      H2304   1.084       .  S
C2305      C2306   1.410       .  A
C2305      C2310   1.410       .  A
C2306      C2307   1.403       .  A
C2306      H2319   1.083   1_565  S
C2307      C2308   1.401       .  A
C2307      H2320   1.083       .  S
C2308      C2309   1.401       .  A
C2308      C2311   1.449       .  S
C2309      C2310   1.402       .  A
C2309      H2321   1.084       .  S
C2310      H2322   1.083       .  S
C2311      C2312   1.212       .  T
C2312      C2313   1.449       .  S
C2313      C2314   1.401       .  A
C2313      C2318   1.401       .  A
C2314      C2315   1.401       .  A
C2314      H2323   1.082       .  S
C2315      C2316   1.409       .  A
C2315      H2324   1.084       .  S
C2316      C2317   1.410       .  A
C2317      C2318   1.403       .  A
C2317      H2325   1.081       .  S
C2318      H2326   1.084       .  S
C2327      C2328   1.408       .  A
C2327      C2332   1.406       .  A
C2328      C2329   1.400       .  A
C2328      H2341   1.083       .  S
C2329      C2330   1.401       .  A
C2329      H2342   1.084       .  S
C2330      C2331   1.402       .  A
C2330      C2333   1.446       .  S
C2331      C2332   1.402       .  A
C2331      H2343   1.083       .  S
C2332      H2344   1.083       .  S
C2333      C2334   1.210       .  T
C2334      C2335   1.447       .  S
C2335      C2336   1.403   1_565  A
C2335      C2340   1.398       .  A
C2336      C2337   1.405       .  A
C2336      H2345   1.082       .  S
C2337      C2338   1.408       .  A
C2337      H2346   1.084       .  S
C2338      C2339   1.411   1_545  A
C2339      C2340   1.397       .  A
C2339      H2347   1.082       .  S
C2340      H2348   1.084       .  S
C2349      C2350   1.408       .  A
C2349      C2354   1.409       .  A
C2350      C2351   1.401       .  A
C2350      H2363   1.083       .  S
C2351      C2352   1.401       .  A
C2351      H2364   1.083       .  S
C2352      C2353   1.398       .  A
C2352      C2355   1.442       .  S
C2353      C2354   1.397       .  A
C2353      H2365   1.084       .  S
C2354      H2366   1.083       .  S
C2355      C2356   1.207       .  T
C2356      C2357   1.442       .  S
C2357      C2358   1.402       .  A
C2357      C2362   1.399       .  A
C2358      C2359   1.402       .  A
C2358      H2367   1.084       .  S
C2359      C2360   1.406       .  A
C2359      H2368   1.082       .  S
C2360      C2361   1.407       .  A
C2361      C2362   1.397       .  A
C2361      H2369   1.084       .  S
C2362      H2370   1.083       .  S
C2371      C2372   1.410       .  A
C2371      C2376   1.409       .  A
C2372      C2373   1.402       .  A
C2372      H2385   1.084       .  S
C2373      C2374   1.401       .  A
C2373      H2386   1.083       .  S
C2374      C2375   1.400       .  A
C2374      C2377   1.448       .  S
C2375      C2376   1.401       .  A
C2375      H2387   1.084       .  S
C2376      H2388   1.082       .  S
C2377      C2378   1.211       .  T
C2378      C2379   1.448       .  S
C2379      C2380   1.401       .  A
C2379      C2384   1.401       .  A
C2380      C2381   1.401       .  A
C2380      H2389   1.084       .  S
C2381      C2382   1.408       .  A
C2381      H2390   1.082       .  S
C2382      C2383   1.409       .  A
C2383      C2384   1.402       .  A
C2383      H2391   1.083       .  S
C2384      H2392   1.083       .  S
C2393      C2394   1.407       .  A
C2393      C2398   1.408       .  A
C2394      C2395   1.403       .  A
C2394      H2407   1.083       .  S
C2395      C2396   1.403       .  A
C2395      H2408   1.083       .  S
C2396      C2397   1.399       .  A
C2396      C2399   1.445       .  S
C2397      C2398   1.398       .  A
C2397      H2409   1.084       .  S
C2398      H2410   1.083       .  S
C2399      C2400   1.209       .  T
C2400      C2401   1.445       .  S
C2401      C2402   1.402       .  A
C2401      C2406   1.399       .  A
C2402      C2403   1.402       .  A
C2402      H2411   1.083       .  S
C2403      C2404   1.408       .  A
C2403      H2412   1.083       .  S
C2404      C2405   1.409       .  A
C2405      C2406   1.399       .  A
C2405      H2413   1.083       .  S
C2406      H2414   1.084       .  S
C2415      C2416   1.408   1_554  A
C2415      C2420   1.408       .  A
C2416      C2417   1.398       .  A
C2416      H2429   1.083       .  S
C2417      C2418   1.400       .  A
C2417      H2430   1.084       .  S
C2418      C2419   1.402       .  A
C2418      C2421   1.446       .  S
C2419      C2420   1.403   1_556  A
C2419      H2431   1.083   1_565  S
C2420      H2432   1.083       .  S
C2421      C2422   1.210       .  T
C2422      C2423   1.447   1_565  S
C2423      C2424   1.403       .  A
C2423      C2428   1.398   1_545  A
C2424      C2425   1.404       .  A
C2424      H2433   1.083       .  S
C2425      C2426   1.408       .  A
C2425      H2434   1.083       .  S
C2426      C2427   1.410       .  A
C2427      C2428   1.398   1_545  A
C2427      H2435   1.083   1_545  S
C2428      H2436   1.084       .  S
C2437      C2438   1.406       .  A
C2437      C2442   1.406       .  A
C2438      C2439   1.396       .  A
C2438      H2451   1.083       .  S
C2439      C2440   1.399       .  A
C2439      H2452   1.084       .  S
C2440      C2441   1.403       .  A
C2440      C2443   1.442       .  S
C2441      C2442   1.403       .  A
C2441      H2453   1.083       .  S
C2442      H2454   1.083       .  S
C2443      C2444   1.208       .  T
C2444      C2445   1.442       .  S
C2445      C2446   1.399       .  A
C2445      C2450   1.401       .  A
C2446      C2447   1.399       .  A
C2446      H2455   1.084       .  S
C2447      C2448   1.409       .  A
C2447      H2456   1.083       .  S
C2448      C2449   1.408       .  A
C2449      C2450   1.400       .  A
C2449      H2457   1.083       .  S
C2450      H2458   1.083       .  S
C2459      C2460   1.408       .  A
C2459      C2464   1.408       .  A
C2460      C2461   1.403       .  A
C2460      H2473   1.082       .  S
C2461      C2462   1.402       .  A
C2461      H2474   1.084       .  S
C2462      C2463   1.398       .  A
C2462      C2465   1.443       .  S
C2463      C2464   1.396       .  A
C2463      H2475   1.083       .  S
C2464      H2476   1.083       .  S
C2465      C2466   1.208       .  T
C2466      C2467   1.443       .  S
C2467      C2468   1.401       .  A
C2467      C2472   1.399       .  A
C2468      C2469   1.401       .  A
C2468      H2477   1.083       .  S
C2469      C2470   1.407       .  A
C2469      H2478   1.083       .  S
C2470      C2471   1.410       .  A
C2471      C2472   1.399       .  A
C2471      H2479   1.083       .  S
C2472      H2480   1.083       .  S
C2481      C2482   1.409       .  A
C2481      C2486   1.410       .  A
C2482      C2483   1.403       .  A
C2482      H2495   1.083       .  S
C2483      C2484   1.402       .  A
C2483      H2496   1.083       .  S
C2484      C2485   1.400       .  A
C2484      C2487   1.449       .  S
C2485      C2486   1.401       .  A
C2485      H2497   1.084       .  S
C2486      H2498   1.083       .  S
C2487      C2488   1.211       .  T
C2488      C2489   1.449       .  S
C2489      C2490   1.402       .  A
C2489      C2494   1.400       .  A
C2490      C2491   1.402       .  A
C2490      H2499   1.084       .  S
C2491      C2492   1.408       .  A
C2491      H2500   1.082       .  S
C2492      C2493   1.410       .  A
C2493      C2494   1.401       .  A
C2493      H2501   1.083       .  S
C2494      H2502   1.083       .  S
C2503      C2504   1.407       .  A
C2503      C2508   1.407       .  A
C2504      C2505   1.402       .  A
C2504      H2517   1.083       .  S
C2505      C2506   1.402       .  A
C2505      H2518   1.083       .  S
C2506      C2507   1.399       .  A
C2506      C2509   1.443       .  S
C2507      C2508   1.397       .  A
C2507      H2519   1.083       .  S
C2508      H2520   1.083       .  S
C2509      C2510   1.208       .  T
C2510      C2511   1.442       .  S
C2511      C2512   1.401       .  A
C2511      C2516   1.398       .  A
C2512      C2513   1.402       .  A
C2512      H2521   1.083       .  S
C2513      C2514   1.408       .  A
C2513      H2522   1.083   1_455  S
C2514      C2515   1.409       .  A
C2515      C2516   1.397       .  A
C2515      H2523   1.083       .  S
C2516      H2524   1.084       .  S
C2525      C2526   1.409       .  A
C2525      C2530   1.409       .  A
C2526      C2527   1.398       .  A
C2526      H2539   1.083       .  S
C2527      C2528   1.399       .  A
C2527      H2540   1.084       .  S
C2528      C2529   1.402       .  A
C2528      C2531   1.445       .  S
C2529      C2530   1.402       .  A
C2529      H2541   1.083       .  S
C2530      H2542   1.083       .  S
C2531      C2532   1.209       .  T
C2532      C2533   1.445       .  S
C2533      C2534   1.399       .  A
C2533      C2538   1.403       .  A
C2534      C2535   1.398       .  A
C2534      H2543   1.084       .  S
C2535      C2536   1.409       .  A
C2535      H2544   1.083       .  S
C2536      C2537   1.407       .  A
C2537      C2538   1.403       .  A
C2537      H2545   1.083       .  S
C2538      H2546   1.083       .  S
C2547      C2548   1.410       .  A
C2547      C2552   1.409       .  A
C2548      C2549   1.400       .  A
C2548      H2561   1.082       .  S
C2549      C2550   1.400       .  A
C2549      H2562   1.084       .  S
C2550      C2551   1.402       .  A
C2550      C2553   1.448       .  S
C2551      C2552   1.403       .  A
C2551      H2563   1.083       .  S
C2552      H2564   1.083       .  S
C2553      C2554   1.211       .  T
C2554      C2555   1.448       .  S
C2555      C2556   1.401       .  A
C2555      C2560   1.401       .  A
C2556      C2557   1.402       .  A
C2556      H2565   1.084       .  S
C2557      C2558   1.410       .  A
C2557      H2566   1.082       .  S
C2558      C2559   1.409       .  A
C2559      C2560   1.401       .  A
C2559      H2567   1.083       .  S
C2560      H2568   1.083       .  S
C2569      C2570   1.408       .  A
C2569      C2574   1.410       .  A
C2570      C2571   1.402       .  A
C2570      H2583   1.083       .  S
C2571      C2572   1.402       .  A
C2571      H2584   1.083       .  S
C2572      C2573   1.398       .  A
C2572      C2575   1.444       .  S
C2573      C2574   1.398       .  A
C2573      H2585   1.084       .  S
C2574      H2586   1.083       .  S
C2575      C2576   1.209       .  T
C2576      C2577   1.444       .  S
C2577      C2578   1.402       .  A
C2577      C2582   1.400       .  A
C2578      C2579   1.402       .  A
C2578      H2587   1.083       .  S
C2579      C2580   1.407       .  A
C2579      H2588   1.083       .  S
C2580      C2581   1.407       .  A
C2581      C2582   1.398       .  A
C2581      H2589   1.083       .  S
C2582      H2590   1.083       .  S
C2591      C2592   1.407       .  A
C2591      C2596   1.409       .  A
C2592      C2593   1.402       .  A
C2592      H2605   1.083       .  S
C2593      C2594   1.402       .  A
C2593      H2606   1.084       .  S
C2594      C2595   1.399       .  A
C2594      C2597   1.445       .  S
C2595      C2596   1.399       .  A
C2595      H2607   1.083       .  S
C2596      H2608   1.083       .  S
C2597      C2598   1.209       .  T
C2598      C2599   1.445       .  S
C2599      C2600   1.402       .  A
C2599      C2604   1.399       .  A
C2600      C2601   1.401       .  A
C2600      H2609   1.082       .  S
C2601      C2602   1.408       .  A
C2601      H2610   1.085       .  S
C2602      C2603   1.410       .  A
C2603      C2604   1.399       .  A
C2603      H2611   1.081       .  S
C2604      H2612   1.085       .  S
C2613      C2614   1.408       .  A
C2613      C2618   1.409       .  A
C2614      C2615   1.401       .  A
C2614      H2627   1.082       .  S
C2615      C2616   1.401       .  A
C2615      H2628   1.084       .  S
C2616      C2617   1.402       .  A
C2616      C2619   1.449       .  S
C2617      C2618   1.403       .  A
C2617      H2629   1.083       .  S
C2618      H2630   1.083       .  S
C2619      C2620   1.212       .  T
C2620      C2621   1.449       .  S
C2621      C2622   1.401       .  A
C2621      C2626   1.401       .  A
C2622      C2623   1.403       .  A
C2622      H2631   1.084       .  S
C2623      C2624   1.410       .  A
C2623      H2632   1.082       .  S
C2624      C2625   1.410       .  A
C2625      C2626   1.402       .  A
C2625      H2633   1.083       .  S
C2626      H2634   1.083       .  S
C2635      C2636   1.408       .  A
C2635      C2640   1.410       .  A
C2636      C2637   1.402       .  A
C2636      H2649   1.083       .  S
C2637      C2638   1.401       .  A
C2637      H2650   1.083       .  S
C2638      C2639   1.398       .  A
C2638      C2641   1.443       .  S
C2639      C2640   1.397       .  A
C2639      H2651   1.084       .  S
C2640      H2652   1.083       .  S
C2641      C2642   1.208       .  T
C2642      C2643   1.442       .  S
C2643      C2644   1.400       .  A
C2643      C2648   1.401       .  A
C2644      C2645   1.397       .  A
C2644      H2653   1.084       .  S
C2645      C2646   1.406       .  A
C2645      H2654   1.083       .  S
C2646      C2647   1.406       .  A
C2647      C2648   1.401       .  A
C2647      H2655   1.083       .  S
C2648      H2656   1.083       .  S
C2657      C2658   1.407       .  A
C2657      C2662   1.408       .  A
C2658      C2659   1.403       .  A
C2658      H2671   1.083       .  S
C2659      C2660   1.402       .  A
C2659      H2672   1.083       .  S
C2660      C2661   1.399       .  A
C2660      C2663   1.444       .  S
C2661      C2662   1.397       .  A
C2661      H2673   1.084       .  S
C2662      H2674   1.082       .  S
C2663      C2664   1.209       .  T
C2664      C2665   1.444       .  S
C2665      C2666   1.402       .  A
C2665      C2670   1.399       .  A
C2666      C2667   1.402       .  A
C2666      H2675   1.083       .  S
C2667      C2668   1.407       .  A
C2667      H2676   1.083       .  S
C2668      C2669   1.410       .  A
C2669      C2670   1.399       .  A
C2669      H2677   1.083       .  S
C2670      H2678   1.084       .  S
C2679      C2680   1.407       .  A
C2679      C2684   1.407       .  A
C2680      C2681   1.404       .  A
C2680      H2693   1.083       .  S
C2681      C2682   1.403       .  A
C2681      H2694   1.083       .  S
C2682      C2683   1.399       .  A
C2682      C2685   1.445       .  S
C2683      C2684   1.397       .  A
C2683      H2695   1.083       .  S
C2684      H2696   1.083       .  S
C2685      C2686   1.209       .  T
C2686      C2687   1.445       .  S
C2687      C2688   1.401       .  A
C2687      C2692   1.399       .  A
C2688      C2689   1.401       .  A
C2688      H2697   1.083       .  S
C2689      C2690   1.408       .  A
C2689      H2698   1.083       .  S
C2690      C2691   1.410       .  A
C2691      C2692   1.400       .  A
C2691      H2699   1.083       .  S
C2692      H2700   1.084       .  S
C2701      C2702   1.409       .  A
C2701      C2706   1.409       .  A
C2702      C2703   1.403       .  A
C2702      H2715   1.083       .  S
C2703      C2704   1.402       .  A
C2703      H2716   1.084       .  S
C2704      C2705   1.401       .  A
C2704      C2707   1.449       .  S
C2705      C2706   1.401       .  A
C2705      H2717   1.083       .  S
C2706      H2718   1.083       .  S
C2707      C2708   1.212       .  T
C2708      C2709   1.449       .  S
C2709      C2710   1.402   1_565  A
C2709      C2714   1.401       .  A
C2710      C2711   1.403       .  A
C2710      H2719   1.083       .  S
C2711      C2712   1.409   1_545  A
C2711      H2720   1.083       .  S
C2712      C2713   1.410       .  A
C2713      C2714   1.402       .  A
C2713      H2721   1.082       .  S
C2714      H2722   1.084       .  S
C2723      C2724   1.409       .  A
C2723      C2728   1.408       .  A
C2724      C2725   1.397       .  A
C2724      H2737   1.082       .  S
C2725      C2726   1.398       .  A
C2725      H2738   1.084       .  S
C2726      C2727   1.403       .  A
C2726      C2729   1.445   1_556  S
C2727      C2728   1.404       .  A
C2727      H2739   1.083       .  S
C2728      H2740   1.083       .  S
C2729      C2730   1.210       .  T
C2730      C2731   1.446       .  S
C2731      C2732   1.399       .  A
C2731      C2736   1.402       .  A
C2732      C2733   1.399       .  A
C2732      H2741   1.084       .  S
C2733      C2734   1.411       .  A
C2733      H2742   1.083       .  S
C2734      C2735   1.408       .  A
C2735      C2736   1.403       .  A
C2735      H2743   1.083       .  S
C2736      H2744   1.083       .  S
C2745      C2746   1.406       .  A
C2745      C2750   1.408       .  A
C2746      C2747   1.403       .  A
C2746      H2759   1.082       .  S
C2747      C2748   1.403       .  A
C2747      H2760   1.084       .  S
C2748      C2749   1.400       .  A
C2748      C2751   1.448       .  S
C2749      C2750   1.400       .  A
C2749      H2761   1.083       .  S
C2750      H2762   1.084       .  S
C2751      C2752   1.211       .  T
C2752      C2753   1.448       .  S
C2753      C2754   1.402       .  A
C2753      C2758   1.399       .  A
C2754      C2755   1.404       .  A
C2754      H2763   1.083       .  S
C2755      C2756   1.409       .  A
C2755      H2764   1.083       .  S
C2756      C2757   1.410       .  A
C2757      C2758   1.399       .  A
C2757      H2765   1.082       .  S
C2758      H2766   1.084       .  S
C2767      C2768   1.407       .  A
C2767      C2772   1.408       .  A
C2768      C2769   1.402       .  A
C2768      H2781   1.084       .  S
C2769      C2770   1.402       .  A
C2769      H2782   1.083       .  S
C2770      C2771   1.399       .  A
C2770      C2773   1.444       .  S
C2771      C2772   1.398       .  A
C2771      H2783   1.084       .  S
C2772      H2784   1.082       .  S
C2773      C2774   1.209       .  T
C2774      C2775   1.445       .  S
C2775      C2776   1.402       .  A
C2775      C2780   1.398       .  A
C2776      C2777   1.403       .  A
C2776      H2785   1.082       .  S
C2777      C2778   1.408       .  A
C2777      H2786   1.084       .  S
C2778      C2779   1.410       .  A
C2779      C2780   1.398       .  A
C2779      H2787   1.082       .  S
C2780      H2788   1.085       .  S
C2789      C2790   1.410       .  A
C2789      C2794   1.410       .  A
C2790      C2791   1.404       .  A
C2790      H2803   1.083       .  S
C2791      C2792   1.402       .  A
C2791      H2804   1.083       .  S
C2792      C2793   1.401       .  A
C2792      C2795   1.451       .  S
C2793      C2794   1.402       .  A
C2793      H2805   1.084       .  S
C2794      H2806   1.082       .  S
C2795      C2796   1.213       .  T
C2796      C2797   1.451       .  S
C2797      C2798   1.401       .  A
C2797      C2802   1.402       .  A
C2798      C2799   1.402       .  A
C2798      H2807   1.084       .  S
C2799      C2800   1.410       .  A
C2799      H2808   1.082       .  S
C2800      C2801   1.410       .  A
C2801      C2802   1.404       .  A
C2801      H2809   1.083       .  S
C2802      H2810   1.083       .  S
C2811      C2812   1.408       .  A
C2811      C2816   1.409       .  A
C2812      C2813   1.400       .  A
C2812      H2825   1.083       .  S
C2813      C2814   1.401       .  A
C2813      H2826   1.083       .  S
C2814      C2815   1.398       .  A
C2814      C2817   1.440       .  S
C2815      C2816   1.397       .  A
C2815      H2827   1.084       .  S
C2816      H2828   1.083       .  S
C2817      C2818   1.206       .  T
C2818      C2819   1.440       .  S
C2819      C2820   1.401       .  A
C2819      C2824   1.398       .  A
C2820      C2821   1.401       .  A
C2820      H2829   1.083       .  S
C2821      C2822   1.406       .  A
C2821      H2830   1.083       .  S
C2822      C2823   1.407       .  A
C2823      C2824   1.396       .  A
C2823      H2831   1.082       .  S
C2824      H2832   1.084       .  S
C2833      C2834   1.409       .  A
C2833      C2838   1.408       .  A
C2834      C2835   1.402       .  A
C2834      H2847   1.082       .  S
C2835      C2836   1.401       .  A
C2835      H2848   1.084       .  S
C2836      C2837   1.401       .  A
C2836      C2839   1.447       .  S
C2837      C2838   1.401       .  A
C2837      H2849   1.083       .  S
C2838      H2850   1.083       .  S
C2839      C2840   1.210       .  T
C2840      C2841   1.447       .  S
C2841      C2842   1.400       .  A
C2841      C2846   1.401       .  A
C2842      C2843   1.401       .  A
C2842      H2851   1.084       .  S
C2843      C2844   1.409       .  A
C2843      H2852   1.083       .  S
C2844      C2845   1.410       .  A
C2845      C2846   1.402       .  A
C2845      H2853   1.083       .  S
C2846      H2854   1.083       .  S
C2855      C2856   1.407       .  A
C2855      C2860   1.407       .  A
C2856      C2857   1.396       .  A
C2856      H2869   1.083       .  S
C2857      C2858   1.398       .  A
C2857      H2870   1.084       .  S
C2858      C2859   1.402       .  A
C2858      C2861   1.441       .  S
C2859      C2860   1.403       .  A
C2859      H2871   1.083       .  S
C2860      H2872   1.083       .  S
C2861      C2862   1.207       .  T
C2862      C2863   1.442       .  S
C2863      C2864   1.401       .  A
C2863      C2868   1.398       .  A
C2864      C2865   1.402       .  A
C2864      H2873   1.082       .  S
C2865      C2866   1.408       .  A
C2865      H2874   1.084       .  S
C2866      C2867   1.409       .  A
C2867      C2868   1.396       .  A
C2867      H2875   1.082       .  S
C2868      H2876   1.085       .  S
C2877      C2878   1.410       .  A
C2877      C2882   1.408       .  A
C2878      C2879   1.398       .  A
C2878      H2891   1.083       .  S
C2879      C2880   1.398       .  A
C2879      H2892   1.084       .  S
C2880      C2881   1.401       .  A
C2880      C2883   1.443       .  S
C2881      C2882   1.401       .  A
C2881      H2893   1.083       .  S
C2882      H2894   1.083       .  S
C2883      C2884   1.208       .  T
C2884      C2885   1.443       .  S
C2885      C2886   1.398       .  A
C2885      C2890   1.402       .  A
C2886      C2887   1.397       .  A
C2886      H2895   1.083       .  S
C2887      C2888   1.408       .  A
C2887      H2896   1.084       .  S
C2888      C2889   1.407       .  A
C2889      C2890   1.402       .  A
C2889      H2897   1.082   1_565  S
C2890      H2898   1.084       .  S
C2899      C2900   1.407       .  A
C2899      C2904   1.408       .  A
C2900      C2901   1.405       .  A
C2900      H2913   1.083       .  S
C2901      C2902   1.404       .  A
C2901      H2914   1.083       .  S
C2902      C2903   1.399       .  A
C2902      C2905   1.448       .  S
C2903      C2904   1.398       .  A
C2903      H2915   1.083       .  S
C2904      H2916   1.083       .  S
C2905      C2906   1.211       .  T
C2906      C2907   1.448       .  S
C2907      C2908   1.403       .  A
C2907      C2912   1.399       .  A
C2908      C2909   1.404       .  A
C2908      H2917   1.083       .  S
C2909      C2910   1.409       .  A
C2909      H2918   1.083       .  S
C2910      C2911   1.410       .  A
C2911      C2912   1.400       .  A
C2911      H2919   1.083       .  S
C2912      H2920   1.083       .  S
C2921      C2922   1.409       .  A
C2921      C2926   1.409       .  A
C2922      C2923   1.402       .  A
C2922      H2935   1.082       .  S
C2923      C2924   1.401       .  A
C2923      H2936   1.084       .  S
C2924      C2925   1.402       .  A
C2924      C2927   1.450       .  S
C2925      C2926   1.403       .  A
C2925      H2937   1.083       .  S
C2926      H2938   1.083       .  S
C2927      C2928   1.212       .  T
C2928      C2929   1.450       .  S
C2929      C2930   1.402       .  A
C2929      C2934   1.401       .  A
C2930      C2931   1.403       .  A
C2930      H2939   1.084       .  S
C2931      C2932   1.410       .  A
C2931      H2940   1.082       .  S
C2932      C2933   1.410       .  A
C2933      C2934   1.402       .  A
C2933      H2941   1.083       .  S
C2934      H2942   1.083       .  S
C2943      C2944   1.410       .  A
C2943      C2948   1.409   1_655  A
C2944      C2945   1.398       .  A
C2944      H2957   1.083       .  S
C2945      C2946   1.398       .  A
C2945      H2958   1.084       .  S
C2946      C2947   1.403       .  A
C2946      C2949   1.446       .  S
C2947      C2948   1.404   1_655  A
C2947      H2959   1.083   1_655  S
C2948      H2960   1.083       .  S
C2949      C2950   1.210       .  T
C2950      C2951   1.446       .  S
C2951      C2952   1.402       .  A
C2951      C2956   1.400       .  A
C2952      C2953   1.403       .  A
C2952      H2961   1.083       .  S
C2953      C2954   1.407       .  A
C2953      H2962   1.083       .  S
C2954      C2955   1.408       .  A
C2955      C2956   1.399       .  A
C2955      H2963   1.083       .  S
C2956      H2964   1.084       .  S
C2965      C2966   1.408       .  A
C2965      C2970   1.408       .  A
C2966      C2967   1.398       .  A
C2966      H2979   1.083       .  S
C2967      C2968   1.399       .  A
C2967      H2980   1.084       .  S
C2968      C2969   1.401       .  A
C2968      C2971   1.443       .  S
C2969      C2970   1.402       .  A
C2969      H2981   1.083       .  S
C2970      H2982   1.083       .  S
C2971      C2972   1.208       .  T
C2972      C2973   1.443       .  S
C2973      C2974   1.399       .  A
C2973      C2978   1.402       .  A
C2974      C2975   1.397       .  A
C2974      H2983   1.084       .  S
C2975      C2976   1.408       .  A
C2975      H2984   1.083       .  S
C2976      C2977   1.406       .  A
C2977      C2978   1.402       .  A
C2977      H2985   1.083       .  S
C2978      H2986   1.083       .  S
C2987      C2988   1.408       .  A
C2987      C2992   1.407       .  A
C2988      C2989   1.403       .  A
C2988      H3001   1.083       .  S
C2989      C2990   1.402       .  A
C2989      H3002   1.083       .  S
C2990      C2991   1.399       .  A
C2990      C2993   1.443       .  S
C2991      C2992   1.396       .  A
C2991      H3003   1.084       .  S
C2992      H3004   1.083       .  S
C2993      C2994   1.208       .  T
C2994      C2995   1.444       .  S
C2995      C2996   1.398       .  A
C2995      C3000   1.402       .  A
C2996      C2997   1.397       .  A
C2996      H3005   1.085       .  S
C2997      C2998   1.410       .  A
C2997      H3006   1.082       .  S
C2998      C2999   1.408   1_655  A
C2999      C3000   1.403   1_455  A
C2999      H3007   1.084       .  S
C3000      H3008   1.082   1_655  S
C3009      C3010   1.409       .  A
C3009      C3014   1.409       .  A
C3010      C3011   1.400       .  A
C3010      H3023   1.083       .  S
C3011      C3012   1.400       .  A
C3011      H3024   1.083       .  S
C3012      C3013   1.401       .  A
C3012      C3015   1.445       .  S
C3013      C3014   1.400       .  A
C3013      H3025   1.084       .  S
C3014      H3026   1.083   1_655  S
C3015      C3016   1.209       .  T
C3016      C3017   1.445       .  S
C3017      C3018   1.399       .  A
C3017      C3022   1.401       .  A
C3018      C3019   1.399       .  A
C3018      H3027   1.083       .  S
C3019      C3020   1.408       .  A
C3019      H3028   1.083       .  S
C3020      C3021   1.409       .  A
C3021      C3022   1.402       .  A
C3021      H3029   1.082       .  S
C3022      H3030   1.084       .  S
C3031      C3032   1.408       .  A
C3031      C3036   1.407       .  A
C3032      C3033   1.397       .  A
C3032      H3045   1.083       .  S
C3033      C3034   1.399       .  A
C3033      H3046   1.083       .  S
C3034      C3035   1.402       .  A
C3034      C3037   1.442       .  S
C3035      C3036   1.402       .  A
C3035      H3047   1.083       .  S
C3036      H3048   1.082       .  S
C3037      C3038   1.207       .  T
C3038      C3039   1.442       .  S
C3039      C3040   1.398       .  A
C3039      C3044   1.401       .  A
C3040      C3041   1.398       .  A
C3040      H3049   1.084       .  S
C3041      C3042   1.410       .  A
C3041      H3050   1.083       .  S
C3042      C3043   1.407       .  A
C3043      C3044   1.400       .  A
C3043      H3051   1.083       .  S
C3044      H3052   1.083       .  S
C3053      C3054   1.409       .  A
C3053      C3058   1.409       .  A
C3054      C3055   1.402       .  A
C3054      H3067   1.083       .  S
C3055      C3056   1.401       .  A
C3055      H3068   1.083       .  S
C3056      C3057   1.400       .  A
C3056      C3059   1.447       .  S
C3057      C3058   1.401       .  A
C3057      H3069   1.084       .  S
C3058      H3070   1.083       .  S
C3059      C3060   1.211       .  T
C3060      C3061   1.447       .  S
C3061      C3062   1.401       .  A
C3061      C3066   1.401       .  A
C3062      C3063   1.401       .  A
C3062      H3071   1.084       .  S
C3063      C3064   1.409       .  A
C3063      H3072   1.082       .  S
C3064      C3065   1.409       .  A
C3065      C3066   1.402       .  A
C3065      H3073   1.083       .  S
C3066      H3074   1.083       .  S
C3075      C3076   1.408       .  A
C3075      C3080   1.410       .  A
C3076      C3077   1.402       .  A
C3076      H3089   1.084       .  S
C3077      C3078   1.402       .  A
C3077      H3090   1.082       .  S
C3078      C3079   1.398       .  A
C3078      C3081   1.443       .  S
C3079      C3080   1.398       .  A
C3079      H3091   1.084       .  S
C3080      H3092   1.082       .  S
C3081      C3082   1.208       .  T
C3082      C3083   1.443       .  S
C3083      C3084   1.402       .  A
C3083      C3088   1.399       .  A
C3084      C3085   1.401       .  A
C3084      H3093   1.082       .  S
C3085      C3086   1.407       .  A
C3085      H3094   1.084       .  S
C3086      C3087   1.408       .  A
C3087      C3088   1.398       .  A
C3087      H3095   1.082       .  S
C3088      H3096   1.085       .  S
