geometry optimzed in LAMMPS
_audit_creation_date              2020-11-30 
_audit_creation_method            'lammps2cif' 
_symmetry_space_group_name_H-M    'P1' 
_symmetry_Int_Tables_number       1 
_symmetry_cell_setting            triclinic 
loop_ 
_symmetry_equiv_pos_as_xyz 
  x,y,z 
_cell_length_a                    45.32939125 
_cell_length_b                    45.45779634455696 
_cell_length_c                    38.29455242922735 
_cell_angle_alpha                 89.29736368035647 
_cell_angle_beta                  90.6972317166336 
_cell_angle_gamma                 119.3168060235303 
loop_ 
_atom_site_label 
_atom_site_type_symbol 
_atom_site_fract_x 
_atom_site_fract_y 
_atom_site_fract_z 
_atom_site_charge 
C1          C  0.55875162  0.48814004  0.11728523     0.80500
N2          N  0.54734202  0.50028265  0.09094704    -0.77800
C3          C  0.51575960  0.48101472  0.07741744     0.83000
N4          N  0.49579722  0.44918553  0.08999837    -0.77700
C5          C  0.50723798  0.43694143  0.11630985     0.83100
N6          N  0.53856550  0.45659467  0.12987496    -0.79400
C7          C  0.46009747  0.48872288  0.01051319     0.80500
N8          N  0.47146670  0.47620506  0.03658192    -0.77800
C9          C  0.50350602  0.49457746  0.04914881     0.83000
N10         N  0.52405864  0.52584485  0.03580641    -0.77700
C11         C  0.51293356  0.53848227  0.00964074     0.83100
N12         N  0.48096995  0.51977962  0.99696972    -0.79400
O13         O  0.56493807  0.49118352  0.57320481    -0.72600
O14         O  0.47516690  0.46332684  0.52796744    -0.73600
O15         O  0.53860787  0.52401690  0.53027343    -0.62200
O16         O  0.50169354  0.43100338  0.57045777    -0.70600
O17         O  0.48470652  0.44613834  0.61776261    -0.70200
O18         O  0.52200382  0.53972456  0.57744283    -0.61500
O19         O  0.45857785  0.47932729  0.57496832    -0.74000
O20         O  0.54873980  0.50722275  0.62043635    -0.72700
Cu21       Cu  0.52068391  0.47685364  0.54886024     1.04600
Cu22       Cu  0.50294455  0.49365828  0.59936203     1.04300
C23         C  0.57125860  0.50416253  0.60363426     0.93600
C24         C  0.45254153  0.46635641  0.54455265     0.92700
C25         C  0.53637133  0.54663832  0.54764776     0.84800
C26         C  0.48690150  0.42368246  0.59998400     0.91100
O27         O  0.23640756  0.82229977  0.89976306    -0.72600
O28         O  0.14716031  0.79492321  0.85272608    -0.73600
O29         O  0.21059503  0.85586858  0.85711360    -0.62200
O30         O  0.17310057  0.76171053  0.89533718    -0.70600
O31         O  0.15617362  0.77660080  0.94286314    -0.70200
O32         O  0.19243570  0.87011272  0.90417749    -0.61500
O33         O  0.12981109  0.80930506  0.90029646    -0.74000
O34         O  0.21947500  0.83780096  0.94684191    -0.72700
Cu35       Cu  0.19248290  0.80821523  0.87458369     1.04600
Cu36       Cu  0.17391159  0.82397954  0.92520868     1.04300
C37         C  0.24224659  0.83490652  0.93036531     0.93600
C38         C  0.12415266  0.79713982  0.86951343     0.92700
C39         C  0.20745793  0.87783524  0.87476909     0.84800
C40         C  0.15813451  0.75420021  0.92479988     0.91100
C41         C  0.56586360  0.03778399  0.11875461     0.80500
N42         N  0.55432498  0.01367585  0.09375670    -0.77800
C43         C  0.52186868  0.00001379  0.08194363     0.83000
N44         N  0.50118028  0.01105783  0.09477584    -0.77700
C45         C  0.51270338  0.03518184  0.11975457     0.83100
N46         N  0.54491624  0.04823113  0.13173823    -0.79400
C47         C  0.46550675  0.93604716  0.01811809     0.80500
N48         N  0.47682196  0.95975362  0.04354373    -0.77800
C49         C  0.50942258  0.97385260  0.05501158     0.83000
N50         N  0.53051539  0.96371962  0.04133937    -0.77700
C51         C  0.51926206  0.94009853  0.01585943     0.83100
N52         N  0.48687997  0.92654292  0.00428470    -0.79400
C53         C  0.96370996  0.43509800  0.12117788     0.80500
N54         N  0.95273841  0.45561241  0.13414436    -0.77800
C55         C  0.96357801  0.48678789  0.12033973     0.83000
N56         N  0.98569475  0.49757473  0.09337538    -0.77700
C57         C  0.99711662  0.47729553  0.08046719     0.83100
N58         N  0.98591253  0.44597827  0.09430134    -0.79400
C59         C  0.05298631  0.53044963  0.00939907     0.80500
N60         N  0.03170039  0.52000808  0.03705961    -0.77800
C61         C  0.02072820  0.48879251  0.05110168     0.83000
N62         N  0.03163475  0.46824119  0.03775706    -0.77700
C63         C  0.05288633  0.47860164  0.01006069     0.83100
N64         N  0.06333313  0.50961077  0.99593499    -0.79400
O65         O  0.90015514  0.15921898  0.23741608    -0.72600
O66         O  0.81025261  0.13200097  0.19243961    -0.73600
O67         O  0.87379142  0.19236051  0.19547804    -0.62200
O68         O  0.83679783  0.09884992  0.23436035    -0.70600
O69         O  0.82044896  0.11382715  0.28222491    -0.70200
O70         O  0.85665943  0.20743854  0.24273739    -0.61500
O71         O  0.79369070  0.14698536  0.24016448    -0.74000
O72         O  0.88405635  0.17505347  0.28487358    -0.72700
Cu73       Cu  0.85582383  0.14506239  0.21329748     1.04600
Cu74       Cu  0.83816113  0.16134157  0.26423260     1.04300
C75         C  0.90654948  0.17213968  0.26787034     0.93600
C76         C  0.78769375  0.13487989  0.20934289     0.92700
C77         C  0.87113310  0.21464017  0.21301428     0.84800
C78         C  0.82238195  0.09141412  0.26410042     0.91100
C79         C  0.17878281  0.76928853  0.44323545     0.80500
N80         N  0.16638987  0.78190642  0.41839507    -0.77800
C81         C  0.18552486  0.81396868  0.40633460     0.83000
N82         N  0.21748762  0.83342370  0.41901384    -0.77700
C83         C  0.22999395  0.82092614  0.44401118     0.83100
N84         N  0.21045583  0.78894040  0.45607060    -0.79400
C85         C  0.17829142  0.87038311  0.34042984     0.80500
N86         N  0.14629178  0.85064899  0.32852993    -0.77800
C87         C  0.12664460  0.81941594  0.34216955     0.83000
N88         N  0.13933048  0.80770145  0.36769023    -0.77700
C89         C  0.17158690  0.82717302  0.37948626     0.83100
N90         N  0.19091304  0.85863035  0.36598182    -0.79400
C91         C  0.22993447  0.37032409  0.45661460     0.80500
N92         N  0.21892036  0.34617564  0.43157061    -0.77800
C93         C  0.18712710  0.33353429  0.41806609     0.83000
N94         N  0.16676054  0.34561925  0.42927975    -0.77700
C95         C  0.17779820  0.36976493  0.45416332     0.83100
N96         N  0.20925497  0.38185227  0.46778448    -0.79400
C97         C  0.13036715  0.27120543  0.35347347     0.80500
N98         N  0.14219241  0.29436876  0.37933589    -0.77800
C99         C  0.17469525  0.30756340  0.39081708     0.83000
N100        N  0.19531952  0.29700150  0.37657413    -0.77700
C101        C  0.18350009  0.27388137  0.35043395     0.83100
N102        N  0.15117531  0.26134218  0.33899313    -0.79400
O103        O  0.35925392  0.19233905  0.18555776    -0.72600
O104        O  0.29922270  0.10059809  0.22654818    -0.73600
O105        O  0.30090255  0.16417058  0.22777402    -0.62200
O106        O  0.35733668  0.12844820  0.18421491    -0.70600
O107        O  0.39022293  0.14344313  0.23147165    -0.70200
O108        O  0.33346514  0.17821666  0.27522715    -0.61500
O109        O  0.33229167  0.11474936  0.27365683    -0.74000
O110        O  0.39179961  0.20660936  0.23305254    -0.72700
Cu111      Cu  0.32802916  0.14590373  0.20434608     1.04600
Cu112      Cu  0.36302904  0.16122110  0.25502668     1.04300
C113        C  0.38463503  0.21407480  0.20304806     0.93600
C114        C  0.30687549  0.09301382  0.25624230     0.92700
C115        C  0.30867447  0.17734748  0.25810825     0.84800
C116        C  0.38242241  0.12995488  0.20130514     0.91100
O117        O  0.99658391  0.51135354  0.60576923    -0.72600
O118        O  0.05589430  0.47970706  0.56318180    -0.73600
O119        O  0.05540929  0.54151296  0.56445662    -0.62200
O120        O  0.99692859  0.44874900  0.60421773    -0.70600
O121        O  0.96513111  0.43417534  0.55617863    -0.70200
O122        O  0.02341467  0.52703702  0.51655317    -0.61500
O123        O  0.02424960  0.46469186  0.51500199    -0.74000
O124        O  0.96448458  0.49636667  0.55791271    -0.72700
Cu125      Cu  0.02724246  0.49578117  0.58611179     1.04600
Cu126      Cu  0.99317313  0.48004776  0.53471590     1.04300
C127        C  0.97156086  0.50944820  0.58830487     0.93600
C128        C  0.04943856  0.46709831  0.53262033     0.92700
C129        C  0.04846427  0.54891928  0.53429697     0.84800
C130        C  0.97216872  0.42671375  0.58625955     0.91100
C131        C  0.79853929  0.61018943  0.67969834     0.80500
N132        N  0.81124993  0.63398719  0.70504140    -0.77800
C133        C  0.84413953  0.64726162  0.71541195     0.83000
N134        N  0.86405894  0.63625246  0.70073873    -0.77700
C135        C  0.85148795  0.61263368  0.67530216     0.83100
N136        N  0.81882885  0.59976926  0.66489884    -0.79400
C137        C  0.90050834  0.70376813  0.78457877     0.80500
N138        N  0.88908221  0.68231365  0.75705860    -0.77800
C139        C  0.85746935  0.67180857  0.74385506     0.83000
N140        N  0.83772220  0.68335224  0.75782495    -0.77700
C141        C  0.84916976  0.70485648  0.78515686     0.83100
N142        N  0.88037826  0.71476621  0.79855653    -0.79400
O143        O  0.63798612  0.83121429  0.89573507    -0.72600
O144        O  0.69567025  0.79719171  0.85361912    -0.73600
O145        O  0.63743413  0.76874020  0.89532917    -0.62200
O146        O  0.69606814  0.86018679  0.85363993    -0.70600
O147        O  0.72906857  0.87495913  0.90080850    -0.70200
O148        O  0.66931580  0.78323062  0.94330712    -0.61500
O149        O  0.72777682  0.81184955  0.90148613    -0.74000
O150        O  0.67076832  0.84688940  0.94310711    -0.72700
Cu151      Cu  0.66570870  0.81382305  0.87291080     1.04600
Cu152      Cu  0.70038767  0.82977101  0.92387838     1.04300
C153        C  0.64560636  0.84488308  0.92581343     0.93600
C154        C  0.72039283  0.79855800  0.87125865     0.92700
C155        C  0.64420119  0.76136825  0.92556023     0.84800
C156        C  0.72147894  0.88217699  0.87083778     0.91100
C157        C  0.84729620  0.20511903  0.67568851     0.80500
N158        N  0.85874560  0.19300944  0.70206552    -0.77800
C159        C  0.83875735  0.16137946  0.71502160     0.83000
N160        N  0.80707855  0.14211768  0.70177040    -0.77700
C161        C  0.79557662  0.15417711  0.67541312     0.83100
N162        N  0.81581818  0.18556120  0.66242704    -0.79400
C163        C  0.84298549  0.10487678  0.78320004     0.80500
N164        N  0.83118442  0.11689892  0.75702566    -0.77800
C165        C  0.85135869  0.14815592  0.74325319     0.83000
N166        N  0.88351844  0.16706125  0.75541292    -0.77700
C167        C  0.89533033  0.15513423  0.78156365     0.83100
N168        N  0.87495983  0.12417805  0.79540347    -0.79400
O169        O  0.78898199  0.60604130  0.23281103    -0.72600
O170        O  0.88020068  0.66401042  0.27676774    -0.73600
O171        O  0.81742404  0.66439228  0.27450200    -0.62200
O172        O  0.85146074  0.60555224  0.23512309    -0.70600
O173        O  0.86804638  0.63752621  0.18727526    -0.70200
O174        O  0.83402762  0.69653038  0.22676498    -0.61500
O175        O  0.89638007  0.69601673  0.22894102    -0.74000
O176        O  0.80528969  0.63820035  0.18509873    -0.72700
Cu177      Cu  0.83394834  0.63387983  0.25647055     1.04600
Cu178      Cu  0.85153667  0.66816604  0.20532285     1.04300
C179        C  0.78255384  0.61338312  0.20237662     0.93600
C180        C  0.90277614  0.68898039  0.25951819     0.92700
C181        C  0.81984643  0.68936754  0.25662607     0.84800
C182        C  0.86556562  0.61255827  0.20523803     0.91100
C183        C  0.63170886  0.76799412  0.45565317     0.80500
N184        N  0.65403945  0.77927995  0.42878498    -0.77800
C185        C  0.66569496  0.81105778  0.41578921     0.83000
N186        N  0.65455054  0.83126948  0.42946037    -0.77700
C187        C  0.63221589  0.82008966  0.45619098     0.83100
N188        N  0.62099642  0.78853015  0.46922865    -0.79400
C189        C  0.72299849  0.86668850  0.34663975     0.80500
N190        N  0.70106201  0.85519475  0.37378821    -0.77800
C191        C  0.68983906  0.82351797  0.38675696     0.83000
N192        N  0.70114629  0.80355948  0.37281126    -0.77700
C193        C  0.72308382  0.81491856  0.34566770     0.83100
N194        N  0.73378557  0.84638846  0.33258625    -0.79400
O195        O  0.52169404  0.94174617  0.56557254    -0.72600
O196        O  0.48586566  0.99801013  0.60773030    -0.73600
O197        O  0.45835985  0.94076790  0.56446367    -0.62200
O198        O  0.54981984  0.99940550  0.60829918    -0.70600
O199        O  0.56502763  0.03282677  0.56151211    -0.70200
O200        O  0.47462254  0.97377364  0.51736755    -0.61500
O201        O  0.50133098  0.03088828  0.56052015    -0.74000
O202        O  0.53867844  0.97525815  0.51885927    -0.72700
Cu203      Cu  0.50341165  0.96884001  0.58820033     1.04600
Cu204      Cu  0.52046092  0.00431213  0.53792370     1.04300
C205        C  0.53646829  0.94998219  0.53605780     0.93600
C206        C  0.48711585  0.02275057  0.59036164     0.92700
C207        C  0.45195763  0.94853914  0.53419700     0.84800
C208        C  0.57197709  0.02506409  0.59143751     0.91100
C209        C  0.38798016  0.19838596  0.67907618     0.80500
N210        N  0.39788537  0.17788519  0.66389288    -0.77800
C211        C  0.38623817  0.14585611  0.67573317     0.83000
N212        N  0.36433509  0.13424763  0.70293191    -0.77700
C213        C  0.35398541  0.15460197  0.71794206     0.83100
N214        N  0.36605146  0.18667409  0.70607952    -0.79400
C215        C  0.29673271  0.09977516  0.78730052     0.80500
N216        N  0.31878009  0.11092582  0.76027973    -0.77800
C217        C  0.33012796  0.14242543  0.74704890     0.83000
N218        N  0.31904491  0.16267971  0.76068251    -0.77700
C219        C  0.29696959  0.15174251  0.78765271     0.83100
N220        N  0.28591806  0.12026363  0.80098031    -0.79400
O221        O  0.16698051  0.36311311  0.89174447    -0.72600
O222        O  0.20354529  0.30564548  0.85265052    -0.73600
O223        O  0.13969084  0.30389026  0.85129405    -0.62200
O224        O  0.23066907  0.36542080  0.89253231    -0.70600
O225        O  0.21665501  0.33401266  0.94079410    -0.70200
O226        O  0.12469250  0.27337103  0.90017046    -0.61500
O227        O  0.18768674  0.27427671  0.90092049    -0.74000
O228        O  0.15312911  0.33255957  0.94058304    -0.72700
Cu229      Cu  0.18573791  0.33558175  0.87031962     1.05500
Cu230      Cu  0.17006378  0.30248606  0.92231464     1.04300
C231        C  0.15399297  0.35658717  0.92223042     0.93600
C232        C  0.20151494  0.28098494  0.87090398     0.92700
C233        C  0.11765837  0.27936856  0.86940421     0.84800
C234        C  0.23813786  0.35926026  0.92298020     0.91100
C235        C  0.24514590  0.24457578  0.82746966     0.20600
C236        C  0.26652025  0.24222524  0.80277427    -0.39200
C237        C  0.27138186  0.21412489  0.80636849     0.19600
C238        C  0.25606108  0.19019760  0.83250309     0.22300
C239        C  0.23500785  0.19274594  0.85739580    -0.39700
C240        C  0.23017264  0.22081990  0.85382025     0.21100
N241        N  0.23638733  0.26878427  0.82973805    -0.33000
C242        C  0.21586272  0.26042797  0.85785352    -0.10600
C243        C  0.21138594  0.23067489  0.87353084    -0.29400
N244        N  0.26366433  0.16526324  0.82951435    -0.46000
C245        C  0.28399279  0.17332832  0.80128786    -0.05300
C246        C  0.28959057  0.20377326  0.78628489    -0.22600
H247        H  0.27826469  0.26074100  0.78213577     0.19200
H248        H  0.22301338  0.17406778  0.87784338     0.18000
H249        H  0.19656481  0.21809692  0.89640943     0.14300
H250        H  0.30424289  0.21616357  0.76325557     0.14100
H251        H  0.24422919  0.28989303  0.81347594     0.32300
H252        H  0.25514109  0.14382325  0.84541967     0.35000
C253        C  0.45370088  0.07758938  0.60788977     0.20600
C254        C  0.44791943  0.10487069  0.60225181    -0.39200
C255        C  0.42721509  0.10841683  0.62678124     0.19600
C256        C  0.41299024  0.08626555  0.65457852     0.22300
C257        C  0.41854754  0.05877332  0.66004817    -0.39700
C258        C  0.43965692  0.05548501  0.63575621     0.21100
N259        N  0.47273229  0.06899542  0.58849287    -0.33000
C260        C  0.47095197  0.04131574  0.60419886    -0.10600
C261        C  0.45061314  0.03213218  0.63381270    -0.29400
N262        N  0.39549884  0.09605082  0.67500472    -0.46000
C263        C  0.39899656  0.12484268  0.66025428    -0.05300
C264        C  0.41839784  0.13320126  0.63002064    -0.22600
H265        H  0.45922271  0.12240724  0.58072590     0.19200
H266        H  0.40780463  0.04163408  0.68197231     0.18000
H267        H  0.44432546  0.01097661  0.65123393     0.14300
H268        H  0.42596216  0.15508469  0.61331831     0.14100
H269        H  0.48595708  0.08109721  0.56586401     0.32300
H270        H  0.38293692  0.08450317  0.69809563     0.35000
C271        C  0.56500686  0.89125920  0.51833073     0.20600
C272        C  0.56728011  0.86183894  0.52309168    -0.39200
C273        C  0.58932343  0.85812780  0.50060777     0.19600
C274        C  0.60794338  0.88200060  0.47543287     0.22300
C275        C  0.60583572  0.91162603  0.47079694    -0.39700
C276        C  0.58343237  0.91517844  0.49310308     0.21100
N277        N  0.54576869  0.90051892  0.53640029    -0.33000
C278        C  0.55174402  0.93046571  0.52252185    -0.10600
C279        C  0.57504794  0.94046833  0.49536543    -0.29400
N280        N  0.62627186  0.87191151  0.45675239    -0.46000
C281        C  0.61901003  0.84132854  0.47010053    -0.05300
C282        C  0.59620523  0.83200439  0.49757160    -0.22600
H283        H  0.55264669  0.84301879  0.54261655     0.19200
H284        H  0.62018677  0.93026045  0.45101029     0.18000
H285        H  0.58492239  0.96336406  0.47985596     0.14300
H286        H  0.58550071  0.80886039  0.51274414     0.14100
H287        H  0.52965676  0.88732654  0.55703911     0.32300
H288        H  0.64215734  0.88469027  0.43584287     0.35000
C289        C  0.76335961  0.77751372  0.29816599     0.20600
C290        C  0.78307219  0.77493081  0.27171673    -0.39200
C291        C  0.78932922  0.74774015  0.27495191     0.19600
C292        C  0.77688410  0.72488466  0.30241779     0.22300
C293        C  0.75683435  0.72723696  0.32864700    -0.39700
C294        C  0.75054514  0.75441828  0.32539500     0.21100
N295        N  0.75482468  0.80171623  0.30170969    -0.33000
C296        C  0.73634895  0.79391707  0.33133319    -0.10600
C297        C  0.73294422  0.76446849  0.34675305    -0.29400
N298        N  0.78662332  0.70148957  0.29965316    -0.46000
C299        C  0.80528574  0.70946657  0.27015859    -0.05300
C300        C  0.80754175  0.73813441  0.25399353    -0.22600
H301        H  0.79308032  0.79295115  0.25040414     0.19200
H302        H  0.74710449  0.70940128  0.35013998     0.18000
H303        H  0.72010259  0.75255436  0.37079181     0.14300
H304        H  0.82056112  0.75016280  0.23006669     0.14100
H305        H  0.76147806  0.82245937  0.28519330     0.32300
H306        H  0.78067123  0.68117880  0.31658261     0.35000
C307        C  0.97436765  0.19061936  0.82679353     0.20600
C308        C  0.99686143  0.19366612  0.85373255    -0.39200
C309        C  0.03006916  0.22003430  0.84986687     0.19600
C310        C  0.04016633  0.24155754  0.82121872     0.22300
C311        C  0.01765576  0.23847726  0.79421253    -0.39700
C312        C  0.98431168  0.21228750  0.79826279     0.21100
N313        N  0.94145419  0.16768658  0.82442881    -0.33000
C314        C  0.93025788  0.17491934  0.79432484    -0.10600
C315        C  0.95620146  0.20264789  0.77727232    -0.29400
N316        N  0.07290576  0.26500771  0.82416871    -0.46000
C317        C  0.08358151  0.25842704  0.85500242    -0.05300
C318        C  0.05763139  0.23053132  0.87175220    -0.22600
H319        H  0.98899607  0.17695034  0.87621188     0.19200
H320        H  0.02542631  0.25545012  0.77194376     0.18000
H321        H  0.95476410  0.21391795  0.75269877     0.14300
H322        H  0.05863100  0.21983921  0.89685756     0.14100
H323        H  0.92745396  0.14831731  0.84224079     0.32300
H324        H  0.08692270  0.28464710  0.80664342     0.35000
C325        C  0.65804518  0.08466954  0.61079575     0.20600
C326        C  0.68954311  0.11367407  0.60601257    -0.39200
C327        C  0.71493833  0.11772042  0.62987025     0.19600
C328        C  0.70946360  0.09453199  0.65625597     0.22300
C329        C  0.67795882  0.06556049  0.66103938    -0.39700
C330        C  0.65245784  0.06166046  0.63740335     0.21100
N331        N  0.62993835  0.07479013  0.59138167    -0.33000
C332        C  0.60624461  0.04538469  0.60587144    -0.10600
C333        C  0.61929107  0.03642029  0.63469780    -0.29400
N334        N  0.73761508  0.10425532  0.67558277    -0.46000
C335        C  0.76109384  0.13395795  0.66149808    -0.05300
C336        C  0.74792092  0.14316860  0.63292603    -0.22600
H337        H  0.69392805  0.13176734  0.58531668     0.19200
H338        H  0.67359475  0.04745925  0.68170930     0.18000
H339        H  0.60647009  0.01409255  0.65095728     0.14300
H340        H  0.76068035  0.16560429  0.61678918     0.14100
H341        H  0.62713835  0.08711765  0.56946116     0.32300
H342        H  0.74053101  0.09170125  0.69722295     0.35000
C343        C  0.75435652  0.96142313  0.82628731     0.20600
C344        C  0.75410486  0.98531499  0.80283022    -0.39200
C345        C  0.78234716  0.01776304  0.80454426     0.19600
C346        C  0.80876914  0.02562606  0.82777784     0.22300
C347        C  0.80889621  0.00185566  0.85137597    -0.39700
C348        C  0.78066215  0.96950762  0.84974182     0.21100
N349        N  0.73038516  0.92900877  0.83019564    -0.33000
C350        C  0.74138710  0.91650516  0.85652481    -0.10600
C351        C  0.77269092  0.94099557  0.86933915    -0.29400
N352        N  0.83316127  0.05773020  0.82349133    -0.46000
C353        C  0.82233776  0.07053698  0.79732166    -0.05300
C354        C  0.79057885  0.04643157  0.78495304    -0.22600
H355        H  0.73351367  0.97907205  0.78454670     0.19200
H356        H  0.82954984  0.00806923  0.86956912     0.18000
H357        H  0.78735877  0.93841264  0.89046701     0.14300
H358        H  0.77597819  0.04922299  0.76388912     0.14100
H359        H  0.70759372  0.91637213  0.81633627     0.32300
H360        H  0.85608531  0.07000154  0.83717965     0.35000
C361        C  0.77814352  0.76916558  0.85280240     0.20600
C362        C  0.80616364  0.76451294  0.85830894    -0.39200
C363        C  0.81107520  0.74543568  0.83300652     0.19600
C364        C  0.78957658  0.73177664  0.80457090     0.22300
C365        C  0.76151251  0.73640993  0.79908268    -0.39700
C366        C  0.75675992  0.75575670  0.82424221     0.21100
N367        N  0.76802079  0.78634000  0.87303692    -0.33000
C368        C  0.74012177  0.78397058  0.85711202    -0.10600
C369        C  0.73227161  0.76513605  0.82660690    -0.29400
N370        N  0.80004543  0.71500109  0.78411939    -0.46000
C371        C  0.82850046  0.71827764  0.79960552    -0.05300
C372        C  0.83618330  0.73703579  0.83014551    -0.22600
H373        H  0.82301549  0.77515706  0.88049556     0.19200
H374        H  0.74479597  0.72595926  0.77676972     0.18000
H375        H  0.71130108  0.75886523  0.80883768     0.14300
H376        H  0.85746951  0.74389948  0.84764440     0.14100
H377        H  0.77931996  0.79879805  0.89626744     0.32300
H378        H  0.78885304  0.70258173  0.76082898     0.35000
C379        C  0.88563972  0.56823138  0.63015364     0.20600
C380        C  0.88608726  0.54591821  0.60554664    -0.39200
C381        C  0.91321112  0.53948855  0.60849122     0.19600
C382        C  0.93787956  0.55398183  0.63415040     0.22300
C383        C  0.93751356  0.57644482  0.65871574    -0.39700
C384        C  0.91051145  0.58313261  0.65555807     0.21100
N385        N  0.86200450  0.57758800  0.63348707    -0.33000
C386        C  0.87190205  0.59867159  0.66114285    -0.10600
C387        C  0.90222005  0.60304067  0.67545330    -0.29400
N388        N  0.96127041  0.54422917  0.63089017    -0.46000
C389        C  0.95152396  0.52368017  0.60275980    -0.05300
C390        C  0.92162190  0.52000675  0.58816166    -0.22600
H391        H  0.86674323  0.53442581  0.58557524     0.19200
H392        H  0.95684812  0.58792483  0.67869945     0.18000
H393        H  0.91565894  0.61776617  0.69807639     0.14300
H394        H  0.90830690  0.50567248  0.56529634     0.14100
H395        H  0.84015186  0.56961064  0.61827365     0.32300
H396        H  0.98296346  0.55178181  0.64625315     0.35000
C397        C  0.93662541  0.34831949  0.63273977     0.20600
C398        C  0.93440812  0.32562974  0.65912783    -0.39200
C399        C  0.90726700  0.29269161  0.65605485     0.19600
C400        C  0.88405036  0.28324302  0.62887647     0.22300
C401        C  0.88638865  0.30583915  0.60237403    -0.39700
C402        C  0.91359692  0.33870818  0.60536955     0.21100
N403        N  0.96010574  0.38098378  0.62964488    -0.33000
C404        C  0.95205889  0.39220859  0.60003834    -0.10600
C405        C  0.92319871  0.36656003  0.58413142    -0.29400
N406        N  0.86010551  0.25084745  0.63235328    -0.46000
C407        C  0.86814216  0.23947355  0.66185771    -0.05300
C408        C  0.89752524  0.26478837  0.67733669    -0.22600
H409        H  0.95242307  0.33310294  0.68050749     0.19200
H410        H  0.86827107  0.29840055  0.58108764     0.18000
H411        H  0.91103992  0.36805130  0.56018908     0.14300
H412        H  0.90964541  0.26319400  0.70126145     0.14100
H413        H  0.98055482  0.39471348  0.64645408     0.32300
H414        H  0.83939014  0.23736205  0.61577522     0.35000
C415        C  0.24289495  0.24680681  0.32820533     0.20600
C416        C  0.27015182  0.24065090  0.33311047    -0.39200
C417        C  0.27418422  0.22135285  0.30716967     0.19600
C418        C  0.25294025  0.20942644  0.27834867     0.22300
C419        C  0.22576362  0.21563898  0.27338398    -0.39700
C420        C  0.22152156  0.23458669  0.29950495     0.21100
N421        N  0.23285937  0.26339212  0.34971289    -0.33000
C422        C  0.20467027  0.26132257  0.33469077    -0.10600
C423        C  0.19692862  0.24365650  0.30332700    -0.29400
N424        N  0.26225939  0.19194746  0.25738500    -0.46000
C425        C  0.28955643  0.19259747  0.27304507    -0.05300
C426        C  0.29771179  0.21064884  0.30418344    -0.22600
H427        H  0.28672560  0.24982220  0.35567386     0.19200
H428        H  0.20890235  0.20606767  0.25106008     0.18000
H429        H  0.17567870  0.23762060  0.28602674     0.14300
H430        H  0.31832499  0.21560618  0.32199701     0.14100
H431        H  0.24389631  0.27455345  0.37350271     0.32300
H432        H  0.25085556  0.18043177  0.23380920     0.35000
C433        C  0.08757264  0.42636967  0.48742854     0.20600
C434        C  0.08978036  0.40456349  0.46327325    -0.39200
C435        C  0.11748402  0.39909759  0.46779461     0.19600
C436        C  0.14127222  0.41454562  0.49407486     0.22300
C437        C  0.13916758  0.43640371  0.51804902    -0.39700
C438        C  0.11137423  0.44156873  0.51375267     0.21100
N439        N  0.06284475  0.43442344  0.48996018    -0.33000
C440        C  0.07096241  0.45455394  0.51831820    -0.10600
C441        C  0.10112648  0.45976301  0.53366473    -0.29400
N442        N  0.16533585  0.40562137  0.49269372    -0.46000
C443        C  0.15684880  0.38423399  0.46541806    -0.05300
C444        C  0.12704700  0.37935415  0.44926725    -0.22600
H445        H  0.07106992  0.39236824  0.44286705     0.19200
H446        H  0.15757687  0.44816429  0.53881461     0.18000
H447        H  0.11332358  0.47406463  0.55692463     0.14300
H448        H  0.11448243  0.36398192  0.42671750     0.14100
H449        H  0.04133405  0.42594040  0.47412272     0.32300
H450        H  0.18639085  0.41379221  0.50918870     0.35000
C451        C  0.03967940  0.76006596  0.32581233     0.20600
C452        C  0.00774660  0.73188582  0.33177969    -0.39200
C453        C  0.98246525  0.72704614  0.30729758     0.19600
C454        C  0.98869671  0.74851676  0.27900403     0.22300
C455        C  0.02046426  0.77671934  0.27318921    -0.39700
C456        C  0.04558522  0.78164491  0.29769852     0.21100
N457        N  0.06794792  0.77038872  0.34519250    -0.33000
C458        C  0.09179710  0.79885368  0.32930643    -0.10600
C459        C  0.07878351  0.80661501  0.29963615    -0.29400
N460        N  0.96097739  0.73793588  0.25887581    -0.46000
C461        C  0.93679714  0.70953781  0.27441832    -0.05300
C462        C  0.94912707  0.70198821  0.30483923    -0.22600
H463        H  0.00298025  0.71495140  0.35372839     0.19200
H464        H  0.02531192  0.79351035  0.25108746     0.18000
H465        H  0.09185838  0.82777599  0.28192642     0.14300
H466        H  0.93578575  0.68061688  0.32222627     0.14100
H467        H  0.07073393  0.75905175  0.36792943     0.32300
H468        H  0.95878452  0.74911499  0.23572009     0.35000
C469        C  0.23842319  0.95577872  0.32030794     0.20600
C470        C  0.26739227  0.98723545  0.32501489    -0.39200
C471        C  0.27116812  0.01251275  0.30126519     0.19600
C472        C  0.24810377  0.00677587  0.27459061     0.22300
C473        C  0.21918259  0.97528515  0.26980765    -0.39700
C474        C  0.21520295  0.95012323  0.29382143     0.21100
N475        N  0.22857159  0.92791523  0.33997631    -0.33000
C476        C  0.19873775  0.90448124  0.32603300    -0.10600
C477        C  0.18959445  0.91734036  0.29717664    -0.29400
N478        N  0.25767760  0.03482887  0.25531858    -0.46000
C479        C  0.28691688  0.05860196  0.27002072    -0.05300
C480        C  0.29612620  0.04568211  0.29875370    -0.22600
H481        H  0.28545951  0.99178323  0.34583479     0.19200
H482        H  0.20098632  0.97079812  0.24913987     0.18000
H483        H  0.16704849  0.90454870  0.28112330     0.14300
H484        H  0.31834647  0.05866881  0.31521165     0.14100
H485        H  0.24105794  0.92519520  0.36182490     0.32300
H486        H  0.24520612  0.03758871  0.23347884     0.35000
C487        C  0.31613302  0.88085800  0.46470958     0.20600
C488        C  0.34805016  0.90968161  0.46072367    -0.39200
C489        C  0.37270735  0.91340501  0.48559289     0.19600
C490        C  0.36592406  0.89041429  0.51253236     0.22300
C491        C  0.33412574  0.86170896  0.51648360    -0.39700
C492        C  0.30967802  0.85779825  0.49148249     0.21100
N493        N  0.28846567  0.87109393  0.44437765    -0.33000
C494        C  0.26444045  0.84147545  0.45829988    -0.10600
C495        C  0.27679582  0.83247003  0.48765509    -0.29400
N496        N  0.39330030  0.89980442  0.53303411    -0.46000
C497        C  0.41786117  0.92890350  0.51897242    -0.05300
C498        C  0.40602660  0.93819158  0.48930759    -0.22600
H499        H  0.35335147  0.92773934  0.43975736     0.19200
H500        H  0.32884060  0.84362318  0.53741480     0.18000
H501        H  0.26349895  0.81023111  0.50395018     0.14300
H502        H  0.41979633  0.96035744  0.47303077     0.14100
H503        H  0.28620202  0.88353034  0.42226757     0.32300
H504        H  0.39511163  0.88726701  0.55529729     0.35000
C505        C  0.14192262  0.69017137  0.48838322     0.20600
C506        C  0.13945488  0.66701785  0.51428234    -0.39200
C507        C  0.11036095  0.63525574  0.51277966     0.19600
C508        C  0.08573711  0.62706861  0.48723290     0.22300
C509        C  0.08813259  0.65029960  0.46137956    -0.39700
C510        C  0.11714559  0.68220086  0.46305409     0.21100
N511        N  0.16701191  0.72202939  0.48432964    -0.33000
C512        C  0.15810461  0.73459650  0.45637665    -0.10600
C513        C  0.12712460  0.71050878  0.44236264    -0.29400
N514        N  0.06068151  0.59516425  0.49145413    -0.46000
C515        C  0.06935087  0.58308203  0.52000973    -0.05300
C516        C  0.10013332  0.60736880  0.53408245    -0.22600
H517        H  0.15871291  0.67332886  0.53422589     0.19200
H518        H  0.06879522  0.64404086  0.44153585     0.18000
H519        H  0.11376293  0.71333426  0.42008860     0.14300
H520        H  0.11325203  0.60491569  0.55678188     0.14100
H521        H  0.18875584  0.73453256  0.49980915     0.32300
H522        H  0.03891252  0.58247952  0.47604487     0.35000
C523        C  0.98444917  0.21267193  0.31546283     0.20600
C524        C  0.00733559  0.23331698  0.34120570    -0.39200
C525        C  0.04081472  0.23997372  0.33745684     0.19600
C526        C  0.05050934  0.22677705  0.31032022     0.22300
C527        C  0.02769546  0.20619466  0.28466498    -0.39700
C528        C  0.99437462  0.19974206  0.28827673     0.21100
N529        N  0.95153080  0.20359580  0.31230028    -0.33000
C530        C  0.94061552  0.18498260  0.28277485    -0.10600
C531        C  0.96657493  0.18191850  0.26716043    -0.29400
N532        N  0.08353299  0.23647291  0.31262423    -0.46000
C533        C  0.09512874  0.25612862  0.34133174    -0.05300
C534        C  0.06927702  0.25906584  0.35753437    -0.22600
H535        H  0.99972772  0.24370977  0.36231848     0.19200
H536        H  0.03541065  0.19619535  0.26327412     0.18000
H537        H  0.96548229  0.16919090  0.24307548     0.14300
H538        H  0.07099357  0.27288964  0.38098602     0.14100
H539        H  0.93760650  0.21037400  0.32866389     0.32300
H540        H  0.09733035  0.23002185  0.29569717     0.35000
C541        C  0.77839302  0.01183921  0.30824070     0.20600
C542        C  0.75822788  0.98871706  0.33404884    -0.39200
C543        C  0.75129239  0.95532704  0.32948132     0.19600
C544        C  0.76365387  0.94581414  0.30144379     0.22300
C545        C  0.78350070  0.96882711  0.27549311    -0.39700
C546        C  0.79036814  0.00213587  0.28002908     0.21100
N547        N  0.78865330  0.04503247  0.30654037    -0.33000
C548        C  0.80718779  0.05642994  0.27696920    -0.10600
C549        C  0.80880867  0.03041171  0.25975455    -0.29400
N550        N  0.75465676  0.91299272  0.30374255    -0.46000
C551        C  0.73633803  0.90141146  0.33340315    -0.05300
C552        C  0.73346528  0.92702319  0.35007621    -0.22600
H553        H  0.74886105  0.99621174  0.35616981     0.19200
H554        H  0.79316830  0.96140866  0.25356219     0.18000
H555        H  0.82156403  0.03195452  0.23552783     0.14300
H556        H  0.72090898  0.92537865  0.37446717     0.14100
H557        H  0.78312982  0.05897613  0.32418367     0.32300
H558        H  0.76099240  0.89941431  0.28641880     0.35000
C559        C  0.11055351  0.39126976  0.96886190     0.20600
C560        C  0.09089906  0.39365085  0.99559526    -0.39200
C561        C  0.08242956  0.41933212  0.99140074     0.19600
C562        C  0.09294607  0.44098241  0.96285535     0.22300
C563        C  0.11227340  0.43839391  0.93603698    -0.39700
C564        C  0.12067576  0.41275256  0.94019214     0.21100
N565        N  0.12175061  0.36894486  0.96646980    -0.33000
C566        C  0.13894631  0.37622796  0.93598726    -0.10600
C567        C  0.13890984  0.40345079  0.91891465    -0.29400
N568        N  0.08303934  0.46420189  0.96565600    -0.46000
C569        C  0.06603216  0.45736185  0.99615736    -0.05300
C570        C  0.06479900  0.42933491  0.01289199    -0.22600
H571        H  0.08300523  0.37692681  0.01806780     0.19200
H572        H  0.12045768  0.45533796  0.91374223     0.18000
H573        H  0.15026089  0.41459243  0.89406763     0.14300
H574        H  0.05364850  0.41857136  0.03792268     0.14100
H575        H  0.11752555  0.34964407  0.98419668     0.32300
H576        H  0.08809849  0.48390549  0.94816177     0.35000
C577        C  0.90803714  0.57620874  0.15995498     0.20600
C578        C  0.92817049  0.57358512  0.13399844    -0.39200
C579        C  0.93490406  0.54676028  0.13809027     0.19600
C580        C  0.92231499  0.52418934  0.16578572     0.22300
C581        C  0.90236721  0.52691894  0.19183578    -0.39700
C582        C  0.89576951  0.55381096  0.18782078     0.21100
N583        N  0.89831794  0.59965809  0.16225821    -0.33000
C584        C  0.87987740  0.59217473  0.19187050    -0.10600
C585        C  0.87768267  0.56373742  0.20852504    -0.29400
N586        N  0.93140877  0.50034344  0.16317087    -0.46000
C587        C  0.95000500  0.50782083  0.13367764    -0.05300
C588        C  0.95295949  0.53672805  0.11738176    -0.22600
H589        H  0.93781671  0.59108582  0.11222175     0.19200
H590        H  0.89260624  0.50933024  0.21353679     0.18000
H591        H  0.86494287  0.55217434  0.23271594     0.14300
H592        H  0.96579427  0.54827579  0.09322898     0.14100
H593        H  0.90424782  0.61975828  0.14503036     0.32300
H594        H  0.92502395  0.48000252  0.18021406     0.35000
C595        C  0.92159868  0.35677429  0.16715273     0.20600
C596        C  0.90008208  0.33375534  0.19217570    -0.39200
C597        C  0.89705677  0.30161352  0.19125234     0.19600
C598        C  0.91392923  0.29298481  0.16704606     0.22300
C599        C  0.93554064  0.31605967  0.14206539    -0.39700
C600        C  0.93876883  0.34830579  0.14315923     0.21100
N601        N  0.92854830  0.38880187  0.16247848    -0.33000
C602        C  0.95037285  0.40085669  0.13538701    -0.10600
C603        C  0.95744113  0.37638736  0.12265223    -0.29400
N604        N  0.90660542  0.26079180  0.17153529    -0.46000
C605        C  0.88512264  0.24898559  0.19892926    -0.05300
C606        C  0.87859729  0.27369392  0.21197990    -0.22600
H607        H  0.88671692  0.34039555  0.21097997     0.19200
H608        H  0.94884823  0.30940536  0.12320667     0.18000
H609        H  0.97370024  0.37872322  0.10109961     0.14300
H610        H  0.86248149  0.27147690  0.23362673     0.14100
H611        H  0.91888739  0.40159953  0.17674386     0.32300
H612        H  0.91584816  0.24774565  0.15705750     0.35000
C613        C  0.55709430  0.90008393  0.96913522     0.20600
C614        C  0.55864769  0.87898990  0.94378725    -0.39200
C615        C  0.58655897  0.87382541  0.94622777     0.19600
C616        C  0.61108379  0.88848837  0.97199373     0.22300
C617        C  0.60970847  0.90992757  0.99723365    -0.39700
C618        C  0.58173756  0.91521192  0.99471770     0.21100
N619        N  0.53234745  0.90774528  0.97315133    -0.33000
C620        C  0.54115564  0.92794114  0.00145647    -0.10600
C621        C  0.57200800  0.93350044  0.01552972    -0.29400
N622        N  0.63502266  0.87948194  0.96848575    -0.46000
C623        C  0.62563455  0.85918493  0.94016248    -0.05300
C624        C  0.59555353  0.85502639  0.92561667    -0.22600
H625        H  0.53935231  0.86721224  0.92381609     0.19200
H626        H  0.62882827  0.92142030  0.01741514     0.18000
H627        H  0.58489671  0.94792316  0.03850244     0.14300
H628        H  0.58227316  0.84049534  0.90283343     0.14100
H629        H  0.51045186  0.89921858  0.95788366     0.32300
H630        H  0.65662455  0.88706879  0.98400462     0.35000
C631        C  0.45167052  0.06126905  0.13707619     0.20600
C632        C  0.42303650  0.06509381  0.13135746    -0.39200
C633        C  0.41871066  0.08597459  0.15512369     0.19600
C634        C  0.44106916  0.10149581  0.18252338     0.22300
C635        C  0.46961100  0.09775325  0.18814603    -0.39700
C636        C  0.47403289  0.07717462  0.16435558     0.21100
N637        N  0.46202046  0.04342676  0.11792032    -0.33000
C638        C  0.49129068  0.04840221  0.13313106    -0.10600
C639        C  0.49948595  0.06920475  0.16215392    -0.29400
N640        N  0.43113800  0.11936829  0.20192112    -0.46000
C641        C  0.40228162  0.11542276  0.18682415    -0.05300
C642        C  0.39370842  0.09485993  0.15742439    -0.22600
H643        H  0.40554962  0.05286525  0.10998039     0.19200
H644        H  0.48715847  0.11005213  0.20946547     0.18000
H645        H  0.52143767  0.07777444  0.17906332     0.14300
H646        H  0.37182233  0.08692309  0.14055243     0.14100
H647        H  0.45035317  0.02939443  0.09561274     0.32300
H648        H  0.44312386  0.13317329  0.22429870     0.35000
C649        C  0.64508097  0.08296709  0.16308620     0.20600
C650        C  0.66739483  0.10321481  0.18930222    -0.39200
C651        C  0.70076725  0.10953065  0.18648812     0.19600
C652        C  0.71118595  0.09693419  0.15940945     0.22300
C653        C  0.68888267  0.07684287  0.13302955    -0.39700
C654        C  0.65535555  0.07013895  0.13610229     0.21100
N655        N  0.61199849  0.07294747  0.16023757    -0.33000
C656        C  0.60098998  0.05339194  0.13139451    -0.10600
C657        C  0.62726828  0.05092823  0.11561807    -0.29400
N658        N  0.74383103  0.10535291  0.16352227    -0.46000
C659        C  0.75411822  0.12311517  0.19359659    -0.05300
C660        C  0.72803962  0.12645230  0.20857086    -0.22600
H661        H  0.65920961  0.11279349  0.21067973     0.19200
H662        H  0.69687950  0.06659960  0.11210982     0.18000
H663        H  0.62603339  0.03720500  0.09224672     0.14300
H664        H  0.72864801  0.13862129  0.23289885     0.14100
H665        H  0.59774275  0.07897479  0.17699257     0.32300
H666        H  0.75793954  0.09855045  0.14744253     0.35000
C667        C  0.03742036  0.76922157  0.84999587     0.20600
C668        C  0.00463764  0.76334358  0.85647977    -0.39200
C669        C  0.98015999  0.74385458  0.83157391     0.19600
C670        C  0.98761926  0.73101427  0.80245066     0.22300
C671        C  0.02051220  0.73694160  0.79593375    -0.39700
C672        C  0.04513077  0.75667196  0.82080291     0.21100
N673        N  0.06483691  0.78607438  0.87035197    -0.33000
C674        C  0.09026346  0.78426209  0.85411576    -0.10600
C675        C  0.07907343  0.76636599  0.82294425    -0.29400
N676        N  0.95991096  0.71401537  0.78231539    -0.46000
C677        C  0.93485849  0.71646082  0.79869659    -0.05300
C678        C  0.94648740  0.73466951  0.82957761    -0.22600
H679        H  0.99863343  0.77323329  0.87925179     0.19200
H680        H  0.02650334  0.72703194  0.77317751     0.18000
H681        H  0.09349704  0.76023237  0.80500227     0.14300
H682        H  0.93237731  0.74108126  0.84766779     0.14100
H683        H  0.06597464  0.79741520  0.89426506     0.32300
H684        H  0.95836686  0.70234648  0.75853508     0.35000
C685        C  0.24911440  0.95703275  0.82987684     0.20600
C686        C  0.26936328  0.98042846  0.80435871    -0.39200
C687        C  0.27285881  0.01273463  0.80702682     0.19600
C688        C  0.25728483  0.02102166  0.83302035     0.22300
C689        C  0.23730597  0.99773933  0.85867158    -0.39700
C690        C  0.23390336  0.96551475  0.85607934     0.21100
N691        N  0.24150673  0.92459515  0.83297164    -0.33000
C692        C  0.22144019  0.91249547  0.86143918    -0.10600
C693        C  0.21620690  0.93727536  0.87657630    -0.29400
N694        N  0.26392168  0.05309362  0.82942380    -0.46000
C695        C  0.28397099  0.06536957  0.80099973    -0.05300
C696        C  0.29020757  0.04099331  0.78637126    -0.22600
H697        H  0.28133161  0.97391950  0.78385491     0.19200
H698        H  0.22513978  0.00418024  0.87902476     0.18000
H699        H  0.20133845  0.93488378  0.89942015     0.14300
H700        H  0.30504349  0.04349278  0.76346308     0.14100
H701        H  0.24954756  0.91156401  0.81684957     0.32300
H702        H  0.25523056  0.06577647  0.84523527     0.35000
C703        C  0.09460762  0.60838908  0.96255289     0.20600
C704        C  0.11535278  0.63088938  0.93670856    -0.39200
C705        C  0.12323602  0.66454799  0.94080978     0.19600
C706        C  0.11126133  0.67494445  0.96846768     0.22300
C707        C  0.09008372  0.65233521  0.99403045    -0.39700
C708        C  0.08223181  0.61866553  0.98996049     0.21100
N709        N  0.08503636  0.57549901  0.96560699    -0.33000
C710        C  0.06641601  0.56473171  0.99514224    -0.10600
C711        C  0.06380966  0.59084498  0.01091911    -0.29400
N712        N  0.12267850  0.70830227  0.96661435    -0.46000
C713        C  0.14196083  0.71917700  0.93751795    -0.05300
C714        C  0.14291881  0.69262640  0.92070240    -0.22600
H715        H  0.12510682  0.62288172  0.91533400     0.19200
H716        H  0.08082340  0.66044710  0.01574958     0.18000
H717        H  0.05129088  0.58989867  0.03513397     0.14300
H718        H  0.15601302  0.69369863  0.89686680     0.14100
H719        H  0.09139971  0.56142131  0.94900967     0.32300
H720        H  0.11738426  0.72271105  0.98386682     0.35000
C721        C  0.31941298  0.87486723  0.97938561     0.20600
C722        C  0.34206672  0.89582123  0.00511141    -0.39200
C723        C  0.37564975  0.90269032  0.00176966     0.19600
C724        C  0.38569562  0.88933257  0.97509517     0.22300
C725        C  0.36305608  0.86825362  0.94954506    -0.39700
C726        C  0.32961643  0.86167508  0.95268640     0.21100
N727        N  0.28659076  0.86602494  0.97557066    -0.33000
C728        C  0.27599649  0.84733477  0.94607016    -0.10600
C729        C  0.30205808  0.84389814  0.93121177    -0.29400
N730        N  0.41888581  0.89966543  0.97756212    -0.46000
C731        C  0.43018453  0.91990703  0.00590920    -0.05300
C732        C  0.40398549  0.92251141  0.02169670    -0.22600
H733        H  0.33427317  0.90651254  0.02577239     0.19200
H734        H  0.37102557  0.85820096  0.92841793     0.18000
H735        H  0.30124855  0.83112587  0.90725250     0.14300
H736        H  0.40543872  0.93673907  0.04472896     0.14100
H737        H  0.27258591  0.87314420  0.99140297     0.32300
H738        H  0.43298978  0.89335184  0.96092545     0.35000
C739        C  0.31664034  0.39862893  0.47716510     0.20600
C740        C  0.34868282  0.40157328  0.47357340    -0.39200
C741        C  0.37355609  0.42371786  0.49678189     0.19600
C742        C  0.36698673  0.44134924  0.52193331     0.22300
C743        C  0.33498694  0.43864039  0.52535804    -0.39700
C744        C  0.31015874  0.41664198  0.50194553     0.21100
N745        N  0.28877951  0.37933766  0.45815441    -0.33000
C746        C  0.26445785  0.38528877  0.47080152    -0.10600
C747        C  0.27680497  0.40838702  0.49813831    -0.29400
N748        N  0.39455596  0.45949893  0.54180370    -0.46000
C749        C  0.41878632  0.45342352  0.52900188    -0.05300
C750        C  0.40674010  0.43146572  0.50078804    -0.22600
H751        H  0.35382321  0.38751373  0.45426011     0.19200
H752        H  0.32974155  0.45240239  0.54494405     0.18000
H753        H  0.26324913  0.41801879  0.51302178     0.14300
H754        H  0.42010725  0.42153159  0.48606360     0.14100
H755        H  0.28657211  0.36345607  0.43760189     0.32300
H756        H  0.39659504  0.47457417  0.56307224     0.35000
C757        C  0.44270499  0.34378577  0.64341938     0.20600
C758        C  0.42191248  0.32010210  0.66850453    -0.39200
C759        C  0.41609056  0.28707692  0.66391986     0.19600
C760        C  0.43002403  0.27846595  0.63655520     0.22300
C761        C  0.45049025  0.30199302  0.61141914    -0.39700
C762        C  0.45623773  0.33486608  0.61594607     0.21100
N763        N  0.45221003  0.37682288  0.64171900    -0.33000
C764        C  0.47180140  0.38876422  0.61287279    -0.10600
C765        C  0.47482626  0.36333915  0.59616852    -0.29400
N766        N  0.42151308  0.24580021  0.63837669    -0.46000
C767        C  0.40190368  0.23339226  0.66704140    -0.05300
C768        C  0.39777598  0.25829563  0.68364652    -0.22600
H769        H  0.41121747  0.32688660  0.69002352     0.19200
H770        H  0.46131639  0.29523149  0.59000243     0.18000
H771        H  0.48862525  0.36539255  0.57256284     0.14300
H772        H  0.38381295  0.25580051  0.70725451     0.14100
H773        H  0.44555337  0.39028009  0.65883571     0.32300
H774        H  0.42881256  0.23282147  0.62129585     0.35000
C775        C  0.71622700  0.56067750  0.64260184     0.20600
C776        C  0.69217236  0.53727277  0.61959405    -0.39200
C777        C  0.65905466  0.53128480  0.62366553     0.19600
C778        C  0.65038797  0.54715083  0.64895906     0.22300
C779        C  0.67450144  0.57046246  0.67225812    -0.39700
C780        C  0.70784768  0.57674750  0.66792830     0.21100
N781        N  0.74941664  0.57090629  0.64355505    -0.33000
C782        C  0.76255184  0.59379204  0.66957774    -0.10600
C783        C  0.73741160  0.59823032  0.68544533    -0.29400
N784        N  0.61748397  0.53834858  0.64607952    -0.46000
C785        C  0.60538342  0.51706638  0.61852974    -0.05300
C786        C  0.63051001  0.51187861  0.60407810    -0.22600
H787        H  0.69890463  0.52512283  0.59949650     0.19200
H788        H  0.66793073  0.58327731  0.69175517     0.18000
H789        H  0.74031699  0.61464794  0.70699536     0.14300
H790        H  0.62850053  0.49703223  0.58137617     0.14100
H791        H  0.76234223  0.56267562  0.62746456     0.32300
H792        H  0.60442231  0.54727038  0.66101693     0.35000
C793        C  0.57824475  0.62440576  0.50000683     0.20600
C794        C  0.59759506  0.64652655  0.47311468    -0.39200
C795        C  0.60383308  0.67985831  0.47592465     0.19600
C796        C  0.59149831  0.69018480  0.50331360     0.22300
C797        C  0.57236643  0.66815667  0.53028648    -0.39700
C798        C  0.56628225  0.63493150  0.52755827     0.21100
N799        N  0.56884325  0.59151829  0.50344214    -0.33000
C800        C  0.55089382  0.58112218  0.53345851    -0.10600
C801        C  0.54876429  0.60749258  0.54924026    -0.29400
N802        N  0.60012784  0.72280906  0.49959466    -0.46000
C803        C  0.61825434  0.73350666  0.46971899    -0.05300
C804        C  0.62125854  0.70745577  0.45424567    -0.22600
H805        H  0.60700924  0.63836882  0.45156920     0.19200
H806        H  0.56280261  0.67626545  0.55174564     0.18000
H807        H  0.53619854  0.60670024  0.57337200     0.14300
H808        H  0.63389116  0.70841535  0.43011153     0.14100
H809        H  0.57448366  0.57710397  0.48655330     0.32300
H810        H  0.59388689  0.73689722  0.51630442     0.35000
C811        C  0.37998648  0.45371394  0.96684090     0.20600
C812        C  0.35649032  0.45097142  0.94108301    -0.39200
C813        C  0.32429081  0.42246579  0.94375839     0.19600
C814        C  0.31605811  0.39880967  0.97030408     0.22300
C815        C  0.33944609  0.40168657  0.99613833    -0.39700
C816        C  0.37171310  0.42989752  0.99320932     0.21100
N817        N  0.41251575  0.47788569  0.96966917    -0.33000
C818        C  0.42500820  0.46916631  0.99788573    -0.10600
C819        C  0.40029943  0.43942255  0.01324833    -0.29400
N820        N  0.28413934  0.37364613  0.96662429    -0.46000
C821        C  0.27202047  0.38117604  0.93738555    -0.05300
C822        C  0.29626426  0.41145415  0.92238312    -0.22600
H823        H  0.36297010  0.46930805  0.92017448     0.19200
H824        H  0.33316484  0.38299249  0.01663641     0.18000
H825        H  0.40294578  0.42645612  0.03594783     0.14300
H826        H  0.29385767  0.42345956  0.89876180     0.14100
H827        H  0.42546770  0.49880857  0.95326298     0.32300
H828        H  0.27158955  0.35234622  0.98264060     0.35000
C829        C  0.60591449  0.68222559  0.97097726     0.20600
C830        C  0.60264027  0.65842852  0.99655028    -0.39200
C831        C  0.57496962  0.62590166  0.99229244     0.19600
C832        C  0.55217403  0.61782473  0.96486071     0.22300
C833        C  0.55553756  0.64153018  0.93923819    -0.39700
C834        C  0.58326916  0.67393531  0.94337839     0.21100
N835        N  0.63027388  0.71470712  0.96870157    -0.33000
C836        C  0.62308482  0.72700768  0.93932050    -0.10600
C837        C  0.59395041  0.70234360  0.92289932    -0.29400
N838        N  0.52750711  0.58556439  0.96725093    -0.46000
C839        C  0.53467596  0.57292454  0.99635244    -0.05300
C840        C  0.56422432  0.59724796  0.01255664    -0.22600
H841        H  0.62031153  0.66474865  0.01813069     0.19200
H842        H  0.53782861  0.63522638  0.91769194     0.18000
H843        H  0.58242425  0.70476808  0.89890439     0.14300
H844        H  0.57574719  0.59456455  0.03643037     0.14100
H845        H  0.65076922  0.72752066  0.98570895     0.32300
H846        H  0.50686941  0.57303445  0.95033169     0.35000
C847        C  0.64548611  0.54635755  0.13612058     0.20600
C848        C  0.67775209  0.57415876  0.13068366    -0.39200
C849        C  0.70267929  0.57793503  0.15511585     0.19600
C850        C  0.69585355  0.55589023  0.18298793     0.22300
C851        C  0.66365478  0.52807499  0.18836889    -0.39700
C852        C  0.63885116  0.52415003  0.16379836     0.21100
N853        N  0.61762025  0.53683852  0.11631309    -0.33000
C854        C  0.59321288  0.50822094  0.13139462    -0.10600
C855        C  0.60548697  0.49956708  0.16108796    -0.29400
N856        N  0.72355138  0.56542454  0.20298284    -0.46000
C857        C  0.74827387  0.59366701  0.18768596    -0.05300
C858        C  0.73628578  0.60220743  0.15766450    -0.22600
H859        H  0.68307301  0.59149167  0.10899725     0.19200
H860        H  0.65832349  0.51073501  0.21005570     0.18000
H861        H  0.59191285  0.47795638  0.17813711     0.14300
H862        H  0.75007628  0.62369046  0.14052884     0.14100
H863        H  0.61550313  0.54871091  0.09365370     0.32300
H864        H  0.72542333  0.55364853  0.22583967     0.35000
C865        C  0.47259060  0.35758708  0.16075225     0.20600
C866        C  0.47141303  0.33444122  0.18603259    -0.39200
C867        C  0.44405540  0.30163720  0.18318091     0.19600
C868        C  0.41989498  0.29258632  0.15698711     0.22300
C869        C  0.42106434  0.31577315  0.13173124    -0.39700
C870        C  0.44828759  0.34867550  0.13473948     0.21100
N871        N  0.49619871  0.39013982  0.15759733    -0.33000
C872        C  0.48690474  0.40218544  0.12946352    -0.10600
C873        C  0.45700453  0.37709651  0.11454903    -0.29400
N874        N  0.39616974  0.26004426  0.16030203    -0.46000
C875        C  0.40513117  0.24835431  0.18893448    -0.05300
C876        C  0.43492370  0.27353356  0.20391395    -0.22600
H877        H  0.49032535  0.34150765  0.20648762     0.19200
H878        H  0.40206782  0.30874580  0.11137996     0.18000
H879        H  0.44384314  0.37918715  0.09169782     0.14300
H880        H  0.44778123  0.27168020  0.22714669     0.14100
H881        H  0.51753258  0.40329680  0.17349520     0.32300
H882        H  0.37480929  0.24678190  0.14447450     0.35000
loop_ 
_geom_bond_atom_site_label_1 
_geom_bond_atom_site_label_2 
_geom_bond_distance 
_geom_bond_site_symmetry_2 
_ccdc_geom_bond_type 
C1            N2   1.357       .  A
C1            N6   1.355       .  A
C1          C854   1.470       .  S
N2            C3   1.360       .  A
C3            N4   1.362       .  A
C3            C9   1.471       .  S
N4            C5   1.360       .  A
C5            N6   1.355       .  A
C5          C872   1.471       .  S
C7            N8   1.359       .  A
C7           N12   1.358   1_554  A
C7          C818   1.470   1_554  S
N8            C9   1.358       .  A
C9           N10   1.359       .  A
N10          C11   1.359       .  A
C11          N12   1.358   1_554  A
C11         C839   1.471   1_554  S
O13         Cu21   2.002       .  S
O13          C23   1.277       .  A
O14         Cu21   2.001       .  S
O14          C24   1.277       .  A
O15         Cu21   2.008       .  S
O15          C25   1.277       .  A
O16         Cu21   1.997       .  S
O16          C26   1.277       .  A
O17         Cu22   2.018       .  S
O17          C26   1.278       .  A
O18         Cu22   2.010       .  S
O18          C25   1.278       .  A
O19         Cu22   2.007       .  S
O19          C24   1.277       .  A
O20         Cu22   2.015       .  S
O20          C23   1.278       .  A
Cu21        Cu22   2.376       .  S
C23         C785   1.470       .  S
C24         C749   1.465       .  S
C25         C800   1.471       .  S
C26         C764   1.469       .  S
O27         Cu35   2.006       .  S
O27          C37   1.278       .  A
O28         Cu35   2.010       .  S
O28          C38   1.277       .  A
O29         Cu35   2.013       .  S
O29          C39   1.278       .  A
O30         Cu35   2.007       .  S
O30          C40   1.278       .  A
O31         Cu36   2.006       .  S
O31          C40   1.277       .  A
O32         Cu36   2.001       .  S
O32          C39   1.277       .  A
O33         Cu36   2.004       .  S
O33          C38   1.277       .  A
O34         Cu36   2.012       .  S
O34          C37   1.277       .  A
Cu35        Cu36   2.376       .  S
C37         C728   1.470       .  S
C38         C674   1.468       .  S
C39         C692   1.468       .  S
C40         C713   1.468       .  S
C41          N42   1.358       .  A
C41          N46   1.354       .  A
C41         C656   1.468       .  S
N42          C43   1.360       .  A
C43          N44   1.361       .  A
C43          C49   1.468   1_545  S
N44          C45   1.358       .  A
C45          N46   1.355       .  A
C45         C638   1.469       .  S
C47          N48   1.358       .  A
C47          N52   1.354       .  A
C47         C731   1.470       .  S
N48          C49   1.361       .  A
C49          N50   1.360       .  A
N50          C51   1.357       .  A
C51          N52   1.355       .  A
C51         C620   1.467       .  S
C53          N54   1.355       .  A
C53          N58   1.357       .  A
C53         C602   1.466       .  S
N54          C55   1.355       .  A
C55          N56   1.358       .  A
C55         C587   1.466       .  S
N56          C57   1.359       .  A
C57          N58   1.358       .  A
C57          C61   1.466   1_655  S
C59          N60   1.357       .  A
C59          N64   1.355   1_554  A
C59         C710   1.468   1_554  S
N60          C61   1.359       .  A
C61          N62   1.360       .  A
N62          C63   1.358       .  A
C63          N64   1.356   1_554  A
C63         C569   1.468   1_554  S
O65         Cu73   2.002       .  S
O65          C75   1.277       .  A
O66         Cu73   2.007       .  S
O66          C76   1.277       .  A
O67         Cu73   2.004       .  S
O67          C77   1.276       .  A
O68         Cu73   2.002       .  S
O68          C78   1.277       .  A
O69         Cu74   2.016       .  S
O69          C78   1.278       .  A
O70         Cu74   2.006       .  S
O70          C77   1.277       .  A
O71         Cu74   2.005       .  S
O71          C76   1.277       .  A
O72         Cu74   2.011       .  S
O72          C75   1.277       .  A
Cu73        Cu74   2.376       .  S
C75         C530   1.468       .  S
C76         C659   1.468       .  S
C77         C605   1.466       .  S
C78         C548   1.471       .  S
C79          N80   1.356       .  A
C79          N84   1.356       .  A
C79         C512   1.471       .  S
N80          C81   1.358       .  A
C81          N82   1.362       .  A
C81          C89   1.469       .  S
N82          C83   1.360       .  A
C83          N84   1.358       .  A
C83         C494   1.474       .  S
C85          N86   1.355       .  A
C85          N90   1.358       .  A
C85         C476   1.466       .  S
N86          C87   1.355       .  A
C87          N88   1.357       .  A
C87         C458   1.469       .  S
N88          C89   1.361       .  A
C89          N90   1.359       .  A
C91          N92   1.361       .  A
C91          N96   1.354       .  A
C91         C746   1.467       .  S
N92          C93   1.361       .  A
C93          N94   1.360       .  A
C93          C99   1.471       .  S
N94          C95   1.356       .  A
C95          N96   1.352       .  A
C95         C443   1.466       .  S
C97          N98   1.355       .  A
C97         N102   1.353       .  A
C97         C533   1.468       .  S
N98          C99   1.360       .  A
C99         N100   1.364       .  A
N100        C101   1.362       .  A
C101        N102   1.355       .  A
C101        C422   1.473       .  S
O103       Cu111   2.010       .  S
O103        C113   1.278       .  A
O104       Cu111   2.005       .  S
O104        C114   1.277       .  A
O105       Cu111   2.013       .  S
O105        C115   1.278       .  A
O106       Cu111   2.015       .  S
O106        C116   1.278       .  A
O107       Cu112   2.002       .  S
O107        C116   1.277       .  A
O108       Cu112   2.011       .  S
O108        C115   1.278       .  A
O109       Cu112   2.004       .  S
O109        C114   1.277       .  A
O110       Cu112   2.004       .  S
O110        C113   1.277       .  A
Cu111      Cu112   2.376       .  S
C113        C875   1.469       .  S
C114        C479   1.466       .  S
C115        C425   1.473       .  S
C116        C641   1.469       .  S
O117       Cu125   2.000   1_655  S
O117        C127   1.276       .  A
O118       Cu125   1.991       .  S
O118        C128   1.276       .  A
O119       Cu125   2.006       .  S
O119        C129   1.277       .  A
O120       Cu125   2.012   1_655  S
O120        C130   1.278       .  A
O121       Cu126   2.007       .  S
O121        C130   1.277       .  A
O122       Cu126   2.011   1_455  S
O122        C129   1.278       .  A
O123       Cu126   2.011   1_455  S
O123        C128   1.277       .  A
O124       Cu126   2.005       .  S
O124        C127   1.278       .  A
Cu125      Cu126   2.377   1_455  S
C127        C389   1.465       .  S
C128        C440   1.464       .  S
C129        C515   1.469       .  S
C130        C404   1.470       .  S
C131        N132   1.359       .  A
C131        N136   1.355       .  A
C131        C782   1.472       .  S
N132        C133   1.362       .  A
C133        N134   1.358       .  A
C133        C139   1.466       .  S
N134        C135   1.356       .  A
C135        N136   1.355       .  A
C135        C386   1.466       .  S
C137        N138   1.359       .  A
C137        N142   1.354       .  A
C137        C677   1.469       .  S
N138        C139   1.362       .  A
C139        N140   1.357       .  A
N140        C141   1.355       .  A
C141        N142   1.353       .  A
C141        C371   1.462       .  S
O143       Cu151   1.996       .  S
O143        C153   1.277       .  A
O144       Cu151   2.001       .  S
O144        C154   1.277       .  A
O145       Cu151   1.998       .  S
O145        C155   1.276       .  A
O146       Cu151   2.007       .  S
O146        C156   1.277       .  A
O147       Cu152   2.015       .  S
O147        C156   1.279       .  A
O148       Cu152   2.020       .  S
O148        C155   1.279       .  A
O149       Cu152   1.993       .  S
O149        C154   1.275       .  A
O150       Cu152   2.003       .  S
O150        C153   1.276       .  A
Cu151      Cu152   2.377       .  S
C153        C623   1.463       .  S
C154        C368   1.461       .  S
C155        C836   1.470       .  S
C156        C350   1.470       .  S
C157        N158   1.359       .  A
C157        N162   1.355       .  A
C157        C407   1.469       .  S
N158        C159   1.361       .  A
C159        N160   1.359       .  A
C159        C165   1.470       .  S
N160        C161   1.358       .  A
C161        N162   1.355       .  A
C161        C335   1.469       .  S
C163        N164   1.360       .  A
C163        N168   1.355       .  A
C163        C353   1.472       .  S
N164        C165   1.362       .  A
C165        N166   1.359       .  A
N166        C167   1.357       .  A
C167        N168   1.355       .  A
C167        C314   1.467       .  S
O169       Cu177   2.009       .  S
O169        C179   1.278       .  A
O170       Cu177   2.013       .  S
O170        C180   1.278       .  A
O171       Cu177   2.004       .  S
O171        C181   1.277       .  A
O172       Cu177   2.000       .  S
O172        C182   1.276       .  A
O173       Cu178   2.009       .  S
O173        C182   1.277       .  A
O174       Cu178   2.003       .  S
O174        C181   1.277       .  A
O175       Cu178   2.004       .  S
O175        C180   1.277       .  A
O176       Cu178   2.010       .  S
O176        C179   1.278       .  A
Cu177      Cu178   2.376       .  S
C179        C857   1.470       .  S
C180        C461   1.469       .  S
C181        C299   1.466       .  S
C182        C584   1.466       .  S
C183        N184   1.360       .  A
C183        N188   1.356       .  A
C183        C803   1.473       .  S
N184        C185   1.362       .  A
C185        N186   1.359       .  A
C185        C191   1.470       .  S
N186        C187   1.356       .  A
C187        N188   1.357       .  A
C187        C281   1.470       .  S
C189        N190   1.359       .  A
C189        N194   1.357       .  A
C189        C551   1.472       .  S
N190        C191   1.360       .  A
C191        N192   1.358       .  A
N192        C193   1.358       .  A
C193        N194   1.357       .  A
C193        C296   1.469       .  S
O195       Cu203   1.999       .  S
O195        C205   1.276       .  A
O196       Cu203   2.005       .  S
O196        C206   1.277   1_565  A
O197       Cu203   2.014       .  S
O197        C207   1.279       .  A
O198       Cu203   2.018       .  S
O198        C208   1.279   1_565  A
O199       Cu204   1.999       .  S
O199        C208   1.276       .  A
O200       Cu204   2.007   1_565  S
O200        C207   1.277       .  A
O201       Cu204   2.007       .  S
O201        C206   1.278       .  A
O202       Cu204   2.016   1_565  S
O202        C205   1.278       .  A
Cu203      Cu204   2.376   1_565  S
C205        C278   1.469       .  S
C206        C260   1.468       .  S
C207        C497   1.471       .  S
C208        C332   1.469       .  S
C209        N210   1.356       .  A
C209        N214   1.354       .  A
C209        C767   1.466       .  S
N210        C211   1.357       .  A
C211        N212   1.359       .  A
C211        C263   1.470       .  S
N212        C213   1.361       .  A
C213        N214   1.356       .  A
C213        C217   1.465       .  S
C215        N216   1.357       .  A
C215        N220   1.359       .  A
C215        C695   1.469       .  S
N216        C217   1.356       .  A
C217        N218   1.358       .  A
N218        C219   1.357       .  A
C219        N220   1.358       .  A
C219        C245   1.472       .  S
O221       Cu229   2.012       .  S
O221        C231   1.279       .  A
O222       Cu229   2.018       .  S
O222        C232   1.279       .  A
O223       Cu229   2.002       .  S
O223        C233   1.276       .  A
O224       Cu229   1.998       .  S
O224        C234   1.276       .  A
O225       Cu230   2.010       .  S
O225        C234   1.278       .  A
O226       Cu230   2.005       .  S
O226        C233   1.278       .  A
O227       Cu230   2.000       .  S
O227        C232   1.276       .  A
O228       Cu230   2.003       .  S
O228        C231   1.276       .  A
Cu229      Cu230   2.376       .  S
C231        C566   1.468       .  S
C232        C242   1.470       .  S
C233        C317   1.466       .  S
C234        C821   1.466       .  S
C235        N241   1.344       .  A
C235        C240   1.385       .  A
C235        C236   1.404       .  A
C236        C237   1.404       .  A
C236        H247   1.082       .  S
C237        C246   1.378       .  A
C237        C238   1.385       .  A
C238        N244   1.343       .  A
C238        C239   1.402       .  A
C239        C240   1.402       .  A
C239        H248   1.082       .  S
C240        C243   1.376       .  A
N241        C242   1.355       .  A
N241        H251   1.045       .  S
C242        C243   1.395       .  A
C243        H249   1.082       .  S
N244        C245   1.355       .  A
N244        H252   1.045       .  S
C245        C246   1.396       .  A
C246        H250   1.083       .  S
C253        N259   1.342       .  A
C253        C258   1.385       .  A
C253        C254   1.401       .  A
C254        C255   1.401       .  A
C254        H265   1.082       .  S
C255        C264   1.375       .  A
C255        C256   1.385       .  A
C256        N262   1.344       .  A
C256        C257   1.403       .  A
C257        C258   1.403       .  A
C257        H266   1.082       .  S
C258        C261   1.378       .  A
N259        C260   1.354       .  A
N259        H269   1.044       .  S
C260        C261   1.395       .  A
C261        H267   1.082       .  S
N262        C263   1.356       .  A
N262        H270   1.044       .  S
C263        C264   1.395       .  A
C264        H268   1.083       .  S
C271        N277   1.341       .  A
C271        C276   1.385       .  A
C271        C272   1.400       .  A
C272        C273   1.399       .  A
C272        H283   1.082       .  S
C273        C282   1.374       .  A
C273        C274   1.384       .  A
C274        N280   1.345       .  A
C274        C275   1.405       .  A
C275        C276   1.404       .  A
C275        H284   1.082       .  S
C276        C279   1.380       .  A
N277        C278   1.354       .  A
N277        H287   1.045       .  S
C278        C279   1.396       .  A
C279        H285   1.082       .  S
N280        C281   1.357       .  A
N280        H288   1.044       .  S
C281        C282   1.393       .  A
C282        H286   1.083       .  S
C289        N295   1.342       .  A
C289        C294   1.385       .  A
C289        C290   1.402       .  A
C290        C291   1.401       .  A
C290        H301   1.082       .  S
C291        C300   1.376       .  A
C291        C292   1.385       .  A
C292        N298   1.342       .  A
C292        C293   1.402       .  A
C293        C294   1.401       .  A
C293        H302   1.082       .  S
C294        C297   1.377       .  A
N295        C296   1.355       .  A
N295        H305   1.045       .  S
C296        C297   1.395       .  A
C297        H303   1.082       .  S
N298        C299   1.355       .  A
N298        H306   1.045       .  S
C299        C300   1.394       .  A
C300        H304   1.082       .  S
C307        N313   1.340       .  A
C307        C312   1.385       .  A
C307        C308   1.401       .  A
C308        C309   1.400   1_655  A
C308        H319   1.082       .  S
C309        C318   1.375       .  A
C309        C310   1.385       .  A
C310        N316   1.342       .  A
C310        C311   1.403       .  A
C311        C312   1.402   1_455  A
C311        H320   1.082       .  S
C312        C315   1.378       .  A
N313        C314   1.354       .  A
N313        H323   1.045       .  S
C314        C315   1.395       .  A
C315        H321   1.082       .  S
N316        C317   1.355       .  A
N316        H324   1.045       .  S
C317        C318   1.393       .  A
C318        H322   1.082       .  S
C325        N331   1.343       .  A
C325        C330   1.385       .  A
C325        C326   1.403       .  A
C326        C327   1.402       .  A
C326        H337   1.083       .  S
C327        C336   1.376       .  A
C327        C328   1.385       .  A
C328        N334   1.343       .  A
C328        C329   1.402       .  A
C329        C330   1.402       .  A
C329        H338   1.082       .  S
C330        C333   1.377       .  A
N331        C332   1.356       .  A
N331        H341   1.044       .  S
C332        C333   1.394       .  A
C333        H339   1.082       .  S
N334        C335   1.355       .  A
N334        H342   1.044       .  S
C335        C336   1.395       .  A
C336        H340   1.083       .  S
C343        N349   1.343       .  A
C343        C348   1.384       .  A
C343        C344   1.405       .  A
C344        C345   1.404   1_565  A
C344        H355   1.082       .  S
C345        C354   1.381       .  A
C345        C346   1.384       .  A
C346        N352   1.341       .  A
C346        C347   1.402       .  A
C347        C348   1.401   1_545  A
C347        H356   1.082       .  S
C348        C351   1.378       .  A
N349        C350   1.356       .  A
N349        H359   1.045       .  S
C350        C351   1.394       .  A
C351        H357   1.082       .  S
N352        C353   1.355       .  A
N352        H360   1.045       .  S
C353        C354   1.396       .  A
C354        H358   1.082       .  S
C361        N367   1.340       .  A
C361        C366   1.385       .  A
C361        C362   1.399       .  A
C362        C363   1.398       .  A
C362        H373   1.083       .  S
C363        C372   1.372       .  A
C363        C364   1.385       .  A
C364        N370   1.341       .  A
C364        C365   1.401       .  A
C365        C366   1.400       .  A
C365        H374   1.082       .  S
C366        C369   1.374       .  A
N367        C368   1.354       .  A
N367        H377   1.045       .  S
C368        C369   1.393       .  A
C369        H375   1.082       .  S
N370        C371   1.354       .  A
N370        H378   1.045       .  S
C371        C372   1.393       .  A
C372        H376   1.083       .  S
C379        N385   1.340       .  A
C379        C384   1.385       .  A
C379        C380   1.400       .  A
C380        C381   1.399       .  A
C380        H391   1.082       .  S
C381        C390   1.375       .  A
C381        C382   1.385       .  A
C382        N388   1.342       .  A
C382        C383   1.403       .  A
C383        C384   1.402       .  A
C383        H392   1.082       .  S
C384        C387   1.378       .  A
N385        C386   1.354       .  A
N385        H395   1.045       .  S
C386        C387   1.395       .  A
C387        H393   1.082       .  S
N388        C389   1.355       .  A
N388        H396   1.045       .  S
C389        C390   1.393       .  A
C390        H394   1.082       .  S
C397        N403   1.343       .  A
C397        C402   1.385       .  A
C397        C398   1.404       .  A
C398        C399   1.402       .  A
C398        H409   1.082       .  S
C399        C408   1.379       .  A
C399        C400   1.385       .  A
C400        N406   1.341       .  A
C400        C401   1.402       .  A
C401        C402   1.401       .  A
C401        H410   1.082       .  S
C402        C405   1.378       .  A
N403        C404   1.355       .  A
N403        H413   1.045       .  S
C404        C405   1.395       .  A
C405        H411   1.082       .  S
N406        C407   1.355       .  A
N406        H414   1.045       .  S
C407        C408   1.395       .  A
C408        H412   1.082       .  S
C415        N421   1.347       .  A
C415        C420   1.385       .  A
C415        C416   1.404       .  A
C416        C417   1.404       .  A
C416        H427   1.082       .  S
C417        C426   1.378       .  A
C417        C418   1.385       .  A
C418        N424   1.344       .  A
C418        C419   1.403       .  A
C419        C420   1.403       .  A
C419        H428   1.083       .  S
C420        C423   1.375       .  A
N421        C422   1.356       .  A
N421        H431   1.044       .  S
C422        C423   1.396       .  A
C423        H429   1.083       .  S
N424        C425   1.356       .  A
N424        H432   1.045       .  S
C425        C426   1.396       .  A
C426        H430   1.082       .  S
C433        N439   1.344       .  A
C433        C438   1.385       .  A
C433        C434   1.404       .  A
C434        C435   1.403       .  A
C434        H445   1.082       .  S
C435        C444   1.379       .  A
C435        C436   1.385       .  A
C436        N442   1.339       .  A
C436        C437   1.399       .  A
C437        C438   1.398       .  A
C437        H446   1.083       .  S
C438        C441   1.372       .  A
N439        C440   1.355       .  A
N439        H449   1.044       .  S
C440        C441   1.392       .  A
C441        H447   1.083       .  S
N442        C443   1.354       .  A
N442        H450   1.045       .  S
C443        C444   1.395       .  A
C444        H448   1.082       .  S
C451        N457   1.345       .  A
C451        C456   1.385       .  A
C451        C452   1.405       .  A
C452        C453   1.405   1_455  A
C452        H463   1.082       .  S
C453        C462   1.380       .  A
C453        C454   1.385       .  A
C454        N460   1.341       .  A
C454        C455   1.400   1_655  A
C455        C456   1.399       .  A
C455        H464   1.082       .  S
C456        C459   1.373       .  A
N457        C458   1.356       .  A
N457        H467   1.044       .  S
C458        C459   1.393       .  A
C459        H465   1.083       .  S
N460        C461   1.354       .  A
N460        H468   1.044       .  S
C461        C462   1.396       .  A
C462        H466   1.082       .  S
C469        N475   1.342       .  A
C469        C474   1.385       .  A
C469        C470   1.401       .  A
C470        C471   1.401   1_565  A
C470        H481   1.082       .  S
C471        C480   1.375       .  A
C471        C472   1.385       .  A
C472        N478   1.342       .  A
C472        C473   1.402   1_545  A
C473        C474   1.401       .  A
C473        H482   1.082       .  S
C474        C477   1.375       .  A
N475        C476   1.354       .  A
N475        H485   1.044       .  S
C476        C477   1.395       .  A
C477        H483   1.083       .  S
N478        C479   1.355       .  A
N478        H486   1.044       .  S
C479        C480   1.394       .  A
C480        H484   1.082       .  S
C487        N493   1.347       .  A
C487        C492   1.384       .  A
C487        C488   1.406       .  A
C488        C489   1.406       .  A
C488        H499   1.082       .  S
C489        C498   1.380       .  A
C489        C490   1.385       .  A
C490        N496   1.343       .  A
C490        C491   1.401       .  A
C491        C492   1.401       .  A
C491        H500   1.082       .  S
C492        C495   1.374       .  A
N493        C494   1.358       .  A
N493        H503   1.044       .  S
C494        C495   1.394       .  A
C495        H501   1.082       .  S
N496        C497   1.354       .  A
N496        H504   1.044       .  S
C497        C498   1.397       .  A
C498        H502   1.082       .  S
C505        N511   1.342       .  A
C505        C510   1.385       .  A
C505        C506   1.402       .  A
C506        C507   1.401       .  A
C506        H517   1.082       .  S
C507        C516   1.377       .  A
C507        C508   1.385       .  A
C508        N514   1.344       .  A
C508        C509   1.404       .  A
C509        C510   1.403       .  A
C509        H518   1.082       .  S
C510        C513   1.379       .  A
N511        C512   1.355       .  A
N511        H521   1.045       .  S
C512        C513   1.396       .  A
C513        H519   1.083       .  S
N514        C515   1.356       .  A
N514        H522   1.045       .  S
C515        C516   1.394       .  A
C516        H520   1.082       .  S
C523        N529   1.344       .  A
C523        C528   1.385       .  A
C523        C524   1.405   1_655  A
C524        C525   1.403       .  A
C524        H535   1.082   1_455  S
C525        C534   1.380       .  A
C525        C526   1.385       .  A
C526        N532   1.340       .  A
C526        C527   1.400       .  A
C527        C528   1.399   1_455  A
C527        H536   1.082       .  S
C528        C531   1.375       .  A
N529        C530   1.356       .  A
N529        H539   1.044       .  S
C530        C531   1.393       .  A
C531        H537   1.082       .  S
N532        C533   1.354       .  A
N532        H540   1.045       .  S
C533        C534   1.396       .  A
C534        H538   1.082       .  S
C541        N547   1.345       .  A
C541        C546   1.384       .  A
C541        C542   1.405   1_545  A
C542        C543   1.404       .  A
C542        H553   1.082       .  S
C543        C552   1.379       .  A
C543        C544   1.385       .  A
C544        N550   1.342       .  A
C544        C545   1.402       .  A
C545        C546   1.401   1_565  A
C545        H554   1.082       .  S
C546        C549   1.376       .  A
N547        C548   1.356       .  A
N547        H557   1.044       .  S
C548        C549   1.394       .  A
C549        H555   1.082       .  S
N550        C551   1.355       .  A
N550        H558   1.045       .  S
C551        C552   1.396       .  A
C552        H556   1.082       .  S
C559        N565   1.343       .  A
C559        C564   1.384       .  A
C559        C560   1.405       .  A
C560        C561   1.403       .  A
C560        H571   1.082   1_556  S
C561        C570   1.380   1_556  A
C561        C562   1.385       .  A
C562        N568   1.340       .  A
C562        C563   1.401       .  A
C563        C564   1.399       .  A
C563        H572   1.082       .  S
C564        C567   1.376       .  A
N565        C566   1.356       .  A
N565        H575   1.045       .  S
C566        C567   1.393       .  A
C567        H573   1.082       .  S
N568        C569   1.354       .  A
N568        H576   1.045       .  S
C569        C570   1.396   1_556  A
C570        H574   1.082       .  S
C577        N583   1.342       .  A
C577        C582   1.385       .  A
C577        C578   1.402       .  A
C578        C579   1.401       .  A
C578        H589   1.082       .  S
C579        C588   1.377       .  A
C579        C580   1.385       .  A
C580        N586   1.340       .  A
C580        C581   1.401       .  A
C581        C582   1.400       .  A
C581        H590   1.083       .  S
C582        C585   1.375       .  A
N583        C584   1.355       .  A
N583        H593   1.045       .  S
C584        C585   1.394       .  A
C585        H591   1.082       .  S
N586        C587   1.355       .  A
N586        H594   1.045       .  S
C587        C588   1.394       .  A
C588        H592   1.082       .  S
C595        N601   1.340       .  A
C595        C600   1.385       .  A
C595        C596   1.401       .  A
C596        C597   1.400       .  A
C596        H607   1.082       .  S
C597        C606   1.376       .  A
C597        C598   1.385       .  A
C598        N604   1.342       .  A
C598        C599   1.402       .  A
C599        C600   1.401       .  A
C599        H608   1.082       .  S
C600        C603   1.377       .  A
N601        C602   1.355       .  A
N601        H611   1.045       .  S
C602        C603   1.394       .  A
C603        H609   1.082       .  S
N604        C605   1.355       .  A
N604        H612   1.045       .  S
C605        C606   1.393       .  A
C606        H610   1.082       .  S
C613        N619   1.338       .  A
C613        C618   1.385       .  A
C613        C614   1.399       .  A
C614        C615   1.397       .  A
C614        H625   1.082       .  S
C615        C624   1.373       .  A
C615        C616   1.385       .  A
C616        N622   1.343       .  A
C616        C617   1.404       .  A
C617        C618   1.403       .  A
C617        H626   1.082   1_556  S
C618        C621   1.380   1_556  A
N619        C620   1.354   1_556  A
N619        H629   1.045       .  S
C620        C621   1.396       .  A
C621        H627   1.082       .  S
N622        C623   1.356       .  A
N622        H630   1.045       .  S
C623        C624   1.392       .  A
C624        H628   1.083       .  S
C631        N637   1.346       .  A
C631        C636   1.384       .  A
C631        C632   1.406       .  A
C632        C633   1.406       .  A
C632        H643   1.082       .  S
C633        C642   1.381       .  A
C633        C634   1.385       .  A
C634        N640   1.340       .  A
C634        C635   1.399       .  A
C635        C636   1.398       .  A
C635        H644   1.082       .  S
C636        C639   1.372       .  A
N637        C638   1.357       .  A
N637        H647   1.043       .  S
C638        C639   1.393       .  A
C639        H645   1.083       .  S
N640        C641   1.353       .  A
N640        H648   1.045       .  S
C641        C642   1.397       .  A
C642        H646   1.082       .  S
C649        N655   1.340       .  A
C649        C654   1.385       .  A
C649        C650   1.402       .  A
C650        C651   1.400       .  A
C650        H661   1.082       .  S
C651        C660   1.376       .  A
C651        C652   1.385       .  A
C652        N658   1.342       .  A
C652        C653   1.404       .  A
C653        C654   1.402       .  A
C653        H662   1.082       .  S
C654        C657   1.379       .  A
N655        C656   1.355       .  A
N655        H665   1.045       .  S
C656        C657   1.395       .  A
C657        H663   1.082       .  S
N658        C659   1.355       .  A
N658        H666   1.045       .  S
C659        C660   1.394       .  A
C660        H664   1.082       .  S
C667        N673   1.341       .  A
C667        C672   1.385       .  A
C667        C668   1.400       .  A
C668        C669   1.399   1_455  A
C668        H679   1.083   1_455  S
C669        C678   1.373       .  A
C669        C670   1.385       .  A
C670        N676   1.345       .  A
C670        C671   1.404   1_655  A
C671        C672   1.404       .  A
C671        H680   1.082       .  S
C672        C675   1.379       .  A
N673        C674   1.354       .  A
N673        H683   1.045       .  S
C674        C675   1.396       .  A
C675        H681   1.082       .  S
N676        C677   1.356       .  A
N676        H684   1.044       .  S
C677        C678   1.394       .  A
C678        H682   1.083       .  S
C685        N691   1.344       .  A
C685        C690   1.385       .  A
C685        C686   1.403       .  A
C686        C687   1.403   1_565  A
C686        H697   1.082       .  S
C687        C696   1.377       .  A
C687        C688   1.385       .  A
C688        N694   1.342       .  A
C688        C689   1.401   1_545  A
C689        C690   1.400       .  A
C689        H698   1.082   1_565  S
C690        C693   1.375       .  A
N691        C692   1.356       .  A
N691        H701   1.044       .  S
C692        C693   1.394       .  A
C693        H699   1.082       .  S
N694        C695   1.355       .  A
N694        H702   1.045       .  S
C695        C696   1.396       .  A
C696        H700   1.083       .  S
C703        N709   1.341       .  A
C703        C708   1.385       .  A
C703        C704   1.402       .  A
C704        C705   1.401       .  A
C704        H715   1.082       .  S
C705        C714   1.377       .  A
C705        C706   1.385       .  A
C706        N712   1.342       .  A
C706        C707   1.403       .  A
C707        C708   1.402       .  A
C707        H716   1.082   1_556  S
C708        C711   1.378   1_556  A
N709        C710   1.355       .  A
N709        H719   1.045       .  S
C710        C711   1.395   1_556  A
C711        H717   1.082       .  S
N712        C713   1.355       .  A
N712        H720   1.045       .  S
C713        C714   1.394       .  A
C714        H718   1.082       .  S
C721        N727   1.344       .  A
C721        C726   1.385       .  A
C721        C722   1.405   1_556  A
C722        C723   1.403       .  A
C722        H733   1.082       .  S
C723        C732   1.380       .  A
C723        C724   1.384   1_554  A
C724        N730   1.341       .  A
C724        C725   1.402       .  A
C725        C726   1.400       .  A
C725        H734   1.082       .  S
C726        C729   1.376       .  A
N727        C728   1.356       .  A
N727        H737   1.044       .  S
C728        C729   1.394       .  A
C729        H735   1.082       .  S
N730        C731   1.355   1_556  A
N730        H738   1.045       .  S
C731        C732   1.395       .  A
C732        H736   1.082       .  S
C739        N745   1.343       .  A
C739        C744   1.385       .  A
C739        C740   1.400       .  A
C740        C741   1.400       .  A
C740        H751   1.082       .  S
C741        C750   1.374       .  A
C741        C742   1.385       .  A
C742        N748   1.343       .  A
C742        C743   1.402       .  A
C743        C744   1.402       .  A
C743        H752   1.083       .  S
C744        C747   1.374       .  A
N745        C746   1.353       .  A
N745        H755   1.045       .  S
C746        C747   1.396       .  A
C747        H753   1.083       .  S
N748        C749   1.355       .  A
N748        H756   1.045       .  S
C749        C750   1.393       .  A
C750        H754   1.082       .  S
C757        N763   1.345       .  A
C757        C762   1.385       .  A
C757        C758   1.405       .  A
C758        C759   1.404       .  A
C758        H769   1.082       .  S
C759        C768   1.378       .  A
C759        C760   1.385       .  A
C760        N766   1.340       .  A
C760        C761   1.399       .  A
C761        C762   1.398       .  A
C761        H770   1.082       .  S
C762        C765   1.372       .  A
N763        C764   1.357       .  A
N763        H773   1.044       .  S
C764        C765   1.393       .  A
C765        H771   1.082       .  S
N766        C767   1.353       .  A
N766        H774   1.045       .  S
C767        C768   1.396       .  A
C768        H772   1.083       .  S
C775        N781   1.340       .  A
C775        C780   1.384       .  A
C775        C776   1.400       .  A
C776        C777   1.399       .  A
C776        H787   1.082       .  S
C777        C786   1.375       .  A
C777        C778   1.384       .  A
C778        N784   1.345       .  A
C778        C779   1.407       .  A
C779        C780   1.406       .  A
C779        H788   1.082       .  S
C780        C783   1.383       .  A
N781        C782   1.354       .  A
N781        H791   1.045       .  S
C782        C783   1.398       .  A
C783        H789   1.082       .  S
N784        C785   1.357       .  A
N784        H792   1.045       .  S
C785        C786   1.393       .  A
C786        H790   1.083       .  S
C793        N799   1.344       .  A
C793        C798   1.384       .  A
C793        C794   1.405       .  A
C794        C795   1.404       .  A
C794        H805   1.082       .  S
C795        C804   1.381       .  A
C795        C796   1.384       .  A
C796        N802   1.342       .  A
C796        C797   1.403       .  A
C797        C798   1.401       .  A
C797        H806   1.082       .  S
C798        C801   1.377       .  A
N799        C800   1.356       .  A
N799        H809   1.045       .  S
C800        C801   1.394       .  A
C801        H807   1.082       .  S
N802        C803   1.356       .  A
N802        H810   1.045       .  S
C803        C804   1.396       .  A
C804        H808   1.082       .  S
C811        N817   1.344       .  A
C811        C816   1.385       .  A
C811        C812   1.404       .  A
C812        C813   1.403       .  A
C812        H823   1.082       .  S
C813        C822   1.377       .  A
C813        C814   1.385       .  A
C814        N820   1.342       .  A
C814        C815   1.401       .  A
C815        C816   1.400       .  A
C815        H824   1.082   1_556  S
C816        C819   1.375   1_556  A
N817        C818   1.356       .  A
N817        H827   1.045       .  S
C818        C819   1.394   1_556  A
C819        H825   1.082       .  S
N820        C821   1.354       .  A
N820        H828   1.045       .  S
C821        C822   1.395       .  A
C822        H826   1.082       .  S
C829        N835   1.345       .  A
C829        C834   1.385       .  A
C829        C830   1.404       .  A
C830        C831   1.404       .  A
C830        H841   1.082   1_556  S
C831        C840   1.378   1_556  A
C831        C832   1.385       .  A
C832        N838   1.343       .  A
C832        C833   1.401       .  A
C833        C834   1.401       .  A
C833        H842   1.082       .  S
C834        C837   1.374       .  A
N835        C836   1.356       .  A
N835        H845   1.045       .  S
C836        C837   1.394       .  A
C837        H843   1.082       .  S
N838        C839   1.355       .  A
N838        H846   1.045       .  S
C839        C840   1.396   1_556  A
C840        H844   1.082       .  S
C847        N853   1.344       .  A
C847        C852   1.385       .  A
C847        C848   1.404       .  A
C848        C849   1.404       .  A
C848        H859   1.082       .  S
C849        C858   1.379       .  A
C849        C850   1.385       .  A
C850        N856   1.343       .  A
C850        C851   1.402       .  A
C851        C852   1.401       .  A
C851        H860   1.082       .  S
C852        C855   1.375       .  A
N853        C854   1.356       .  A
N853        H863   1.044       .  S
C854        C855   1.395       .  A
C855        H861   1.083       .  S
N856        C857   1.355       .  A
N856        H864   1.045       .  S
C857        C858   1.396       .  A
C858        H862   1.082       .  S
C865        N871   1.341       .  A
C865        C870   1.384       .  A
C865        C866   1.403       .  A
C866        C867   1.401       .  A
C866        H877   1.083       .  S
C867        C876   1.378       .  A
C867        C868   1.385       .  A
C868        N874   1.342       .  A
C868        C869   1.404       .  A
C869        C870   1.402       .  A
C869        H878   1.082       .  S
C870        C873   1.381       .  A
N871        C872   1.356       .  A
N871        H881   1.045       .  S
C872        C873   1.395       .  A
C873        H879   1.082       .  S
N874        C875   1.355       .  A
N874        H882   1.045       .  S
C875        C876   1.395       .  A
C876        H880   1.083       .  S
