geometry optimzed in LAMMPS
_audit_creation_date              2020-11-30 
_audit_creation_method            'lammps2cif' 
_symmetry_space_group_name_H-M    'P1' 
_symmetry_Int_Tables_number       1 
_symmetry_cell_setting            triclinic 
loop_ 
_symmetry_equiv_pos_as_xyz 
  x,y,z 
_cell_length_a                    79.34342108 
_cell_length_b                    79.56009507157701 
_cell_length_c                    79.30138298314493 
_cell_angle_alpha                 89.99521168299947 
_cell_angle_beta                  89.96825677544801 
_cell_angle_gamma                 90.24211112916142 
loop_ 
_atom_site_label 
_atom_site_type_symbol 
_atom_site_fract_x 
_atom_site_fract_y 
_atom_site_fract_z 
_atom_site_charge 
O1          O  0.72311789  0.59706654  0.85852381    -0.57500
C2          C  0.73280208  0.59352718  0.80650991     0.75100
O3          O  0.69353134  0.56275040  0.82340022    -0.58600
C4          C  0.70993877  0.59968274  0.86721356     0.75100
C5          C  0.68238177  0.61667506  0.82441846     0.77500
Cd6        Cd  0.70682812  0.59045140  0.83211647     1.37500
O7          O  0.73634498  0.59606461  0.82189224    -0.57500
O8          O  0.69789966  0.61951597  0.82690877    -0.56300
C9          C  0.70182788  0.55398936  0.83383780     0.77500
O10         O  0.67796507  0.60129919  0.82443737    -0.58700
O11         O  0.71755824  0.59011524  0.80331205    -0.57100
O12         O  0.69601740  0.59806725  0.85960028    -0.57100
O13         O  0.71150502  0.56211282  0.84354109    -0.56300
O14         O  0.82580022  0.58926436  0.74418130    -0.57500
C15         C  0.86782476  0.58683086  0.72463010     0.75100
O16         O  0.83952600  0.55905063  0.69925353    -0.58600
C17         C  0.81018343  0.59146329  0.74185885     0.75100
C18         C  0.82994668  0.61134563  0.68702114     0.77500
Cd19       Cd  0.83298243  0.58600823  0.71368254     1.37500
O20         O  0.85884322  0.59991671  0.72428608    -0.57500
O21         O  0.83315671  0.61466837  0.70224455    -0.56300
C22         C  0.82625585  0.55147792  0.70396981     0.77500
O23         O  0.82769120  0.59593992  0.68368669    -0.58700
O24         O  0.86052154  0.57327422  0.72056101    -0.57100
O25         O  0.80531932  0.59150901  0.72666435    -0.57100
O26         O  0.81575501  0.56017478  0.71220299    -0.56300
O27         O  0.59119166  0.73864519  0.82512966    -0.57500
C28         C  0.58397474  0.70785681  0.86715196     0.75100
O29         O  0.55461441  0.69700790  0.81920934    -0.58600
C30         C  0.59048041  0.73741626  0.80920885     0.75100
C31         C  0.60606756  0.68263434  0.82353776     0.77500
Cd32       Cd  0.58166924  0.70916463  0.83083653     1.37500
O33         O  0.58694458  0.72160200  0.85958049    -0.57500
O34         O  0.61060802  0.69720217  0.82818655    -0.56300
C35         C  0.54501018  0.70677216  0.82738363     0.77500
O36         O  0.59034682  0.68052938  0.82148281    -0.58700
O37         O  0.58045785  0.69539198  0.85790914    -0.57100
O38         O  0.58614885  0.72318438  0.80348836    -0.57100
O39         O  0.55233845  0.71754887  0.83653818    -0.56300
O40         O  0.59446710  0.82000771  0.73886239    -0.57500
C41         C  0.58307276  0.86711399  0.71598895     0.75100
O42         O  0.59275864  0.82541448  0.68042914    -0.58600
C43         C  0.59356181  0.80464899  0.73462061     0.75100
C44         C  0.54878532  0.82437497  0.70966556     0.77500
Cd45       Cd  0.58486595  0.83094259  0.71061487     1.37500
O46         O  0.59379417  0.85855267  0.72414083    -0.57500
O47         O  0.55677301  0.82785809  0.72303605    -0.56300
C48         C  0.60836272  0.82843235  0.68220603     0.77500
O49         O  0.55759009  0.82321430  0.69633925    -0.58700
O50         O  0.57386620  0.85896673  0.70587049    -0.57100
O51         O  0.58960379  0.80181398  0.71942043    -0.57100
O52         O  0.61304185  0.83216227  0.69700314    -0.56300
O53         O  0.85171441  0.71739512  0.60312537    -0.57500
C54         C  0.79955513  0.72943911  0.59475259     0.75100
O55         O  0.82119034  0.69282353  0.55899818    -0.58600
C56         C  0.86237504  0.71346330  0.59192626     0.75100
C57         C  0.82385051  0.67647014  0.60985205     0.77500
Cd58       Cd  0.82666582  0.70578888  0.58762536     1.37500
O59         O  0.81488162  0.73326334  0.59716526    -0.57500
O60         O  0.82574888  0.69137682  0.61503040    -0.56300
C61         C  0.82402008  0.70641444  0.55101599     0.77500
O62         O  0.82250280  0.67475698  0.59399209    -0.58700
O63         O  0.79675514  0.71450145  0.58997205    -0.57100
O64         O  0.85651085  0.70646977  0.57887006    -0.57100
O65         O  0.82772529  0.71907875  0.55995432    -0.56300
O66         O  0.73989588  0.82379016  0.59829060    -0.57500
C67         C  0.71397949  0.86968200  0.58871859     0.75100
O68         O  0.69684336  0.82464322  0.56226582    -0.58600
C69         C  0.73691078  0.80816734  0.59680573     0.75100
C70         C  0.68551124  0.83005905  0.61625153     0.77500
Cd71       Cd  0.71113414  0.83326542  0.58973345     1.37500
O72         O  0.72499146  0.86131573  0.59670255    -0.57500
O73         O  0.70080961  0.83361243  0.61911580    -0.56300
C74         C  0.70969729  0.82813287  0.55331474     0.77500
O75         O  0.68181439  0.82723297  0.60093079    -0.58700
O76         O  0.70242155  0.86119767  0.58176096    -0.57100
O77         O  0.72193001  0.80421755  0.59286920    -0.57100
O78         O  0.72248573  0.83341407  0.56126024    -0.56300
O79         O  0.67859402  0.00348584  0.60286027    -0.57500
C80         C  0.70562475  0.00756799  0.55617270     0.75100
O81         O  0.72738561  0.02840718  0.59855871    -0.58600
C82         C  0.68327210  0.00213153  0.61813756     0.75100
C83         C  0.71683431  0.97013752  0.59343490     0.77500
Cd84       Cd  0.70719428  0.00480764  0.59184265     1.37500
O85         O  0.69221800  0.00618198  0.56484848    -0.57500
O86         O  0.70303587  0.97541501  0.58748861    -0.56300
C87         C  0.71565751  0.03932221  0.59791909     0.77500
O88         O  0.72710843  0.98125579  0.59891038    -0.58700
O89         O  0.71946457  0.00770785  0.56416383    -0.57100
O90         O  0.69901224  0.00214146  0.62098758    -0.57100
O91         O  0.70092856  0.03387935  0.59505636    -0.56300
O92         O  0.59133377  0.00002819  0.68098354    -0.57500
C93         C  0.54949069  0.00587007  0.71171034     0.75100
O94         O  0.59549065  0.97812635  0.72994737    -0.58600
C95         C  0.60707033  0.99813224  0.68316357     0.75100
C96         C  0.59377427  0.03556157  0.71900059     0.77500
Cd97       Cd  0.58498804  0.00144650  0.71112298     1.37500
O98         O  0.55733292  0.00367689  0.69792696    -0.57500
O99         O  0.59091781  0.02994825  0.70437796    -0.56300
C100        C  0.58659441  0.96713886  0.72229481     0.77500
O101        O  0.59342252  0.02489786  0.73100428    -0.58700
O102        O  0.55826029  0.00634339  0.72506376    -0.57100
O103        O  0.61223150  0.99710837  0.69826297    -0.57100
O104        O  0.57709501  0.97246886  0.71069360    -0.56300
O105        O  0.82675232  0.41313252  0.73974488    -0.57500
C106        C  0.86982858  0.41727364  0.72379255     0.75100
O107        O  0.83359956  0.40649186  0.68042557    -0.58600
C108        C  0.81115164  0.41333970  0.73641860     0.75100
C109        C  0.83281089  0.45209125  0.69790845     0.77500
Cd110      Cd  0.83607419  0.41782554  0.71009047     1.37500
O111        O  0.86298745  0.40424450  0.71769594    -0.57500
O112        O  0.82140949  0.44498998  0.70655573    -0.56300
C113        C  0.83236825  0.39123414  0.68485310     0.77500
O114        O  0.84509878  0.44291249  0.69361795    -0.58700
O115        O  0.86079697  0.43030277  0.72426188    -0.57100
O116        O  0.80727687  0.41527399  0.72106738    -0.57100
O117        O  0.83262870  0.38856590  0.70055297    -0.56300
O118        O  0.73320451  0.41237997  0.81197048    -0.57500
C119        C  0.70749411  0.40991920  0.85700502     0.75100
O120        O  0.68875359  0.44432278  0.81274663    -0.58600
C121        C  0.73026990  0.41531289  0.79654490     0.75100
C122        C  0.67977765  0.39086886  0.81477544     0.77500
Cd123      Cd  0.70376931  0.41787578  0.82170379     1.37500
O124        O  0.72042015  0.41384507  0.84841224    -0.57500
O125        O  0.69546052  0.38833748  0.81626697    -0.56300
C126        C  0.69658912  0.45388516  0.82288784     0.77500
O127        O  0.67515887  0.40612126  0.81529702    -0.58700
O128        O  0.69362118  0.40956899  0.84918448    -0.57100
O129        O  0.71521446  0.41901065  0.79289402    -0.57100
O130        O  0.70701770  0.44673508  0.83251111    -0.56300
O131        O  0.59106984  0.26854656  0.81168810    -0.57500
C132        C  0.58874988  0.28311225  0.85835896     0.75100
O133        O  0.58889238  0.32576632  0.82434809    -0.58600
C134        C  0.58485003  0.27148996  0.79730067     0.75100
C135        C  0.54466812  0.30154203  0.82625143     0.77500
Cd136      Cd  0.58100279  0.29533964  0.82483953     1.37500
O137        O  0.58056611  0.27417379  0.84796940    -0.57500
O138        O  0.55237676  0.29301044  0.83722238    -0.56300
C139        C  0.60418756  0.32371832  0.82020581     0.77500
O140        O  0.55383470  0.30823961  0.81501147    -0.58700
O141        O  0.59375984  0.29727336  0.85303047    -0.57100
O142        O  0.57764627  0.28552254  0.79563173    -0.57100
O143        O  0.60871142  0.30864401  0.81792415    -0.56300
O144        O  0.81781392  0.26696661  0.59525562    -0.57500
C145        C  0.86559846  0.28331886  0.59248809     0.75100
O146        O  0.83152623  0.28189187  0.55991434    -0.58600
C147        C  0.80270976  0.27197338  0.59472521     0.75100
C148        C  0.82963154  0.32370237  0.60969079     0.77500
Cd149      Cd  0.83097769  0.29423237  0.58777681     1.37500
O150        O  0.85452448  0.28036333  0.60360982    -0.57500
O151        O  0.82988067  0.30880517  0.61523372    -0.56300
C152        C  0.82831136  0.29478144  0.55118750     0.77500
O153        O  0.82971377  0.32521876  0.59376453    -0.58700
O154        O  0.86065758  0.29118317  0.57957662    -0.57100
O155        O  0.80065191  0.28745150  0.59169628    -0.57100
O156        O  0.82584601  0.30826564  0.55940230    -0.56300
O157        O  0.59243549  0.17930277  0.73432541    -0.57500
C158        C  0.59120073  0.13471812  0.70842830     0.75100
O159        O  0.55430608  0.17897592  0.69551691    -0.58600
C160        C  0.58767330  0.19439476  0.73259178     0.75100
C161        C  0.60509790  0.17917162  0.67821625     0.77500
Cd162      Cd  0.58276909  0.16994131  0.70589874     1.37500
O163        O  0.59164950  0.14395532  0.72146273    -0.57500
O164        O  0.61026374  0.17809704  0.69328194    -0.56300
C165        C  0.54626674  0.16796600  0.70385322     0.77500
O166        O  0.58946790  0.17666706  0.67600125    -0.58700
O167        O  0.58725986  0.14189526  0.69476230    -0.57100
O168        O  0.58106328  0.19806397  0.71856134    -0.57100
O169        O  0.55507549  0.15815695  0.71270080    -0.56300
O170        O  0.72156548  0.14762360  0.59405040    -0.57500
C171        C  0.73481226  0.19772130  0.59448366     0.75100
O172        O  0.69236402  0.18452936  0.56183698    -0.58600
C173        C  0.70811593  0.13899883  0.59432394     0.75100
C174        C  0.68179056  0.18390259  0.61344299     0.77500
Cd175      Cd  0.70689849  0.17496903  0.58818338     1.37500
O176        O  0.73633178  0.18195429  0.59605949    -0.57500
O177        O  0.69716738  0.18166138  0.61704445    -0.56300
C178        C  0.70261489  0.17770183  0.55170840     0.77500
O179        O  0.67798335  0.18272342  0.59796009    -0.58700
O180        O  0.72030882  0.20296352  0.59049999    -0.57100
O181        O  0.69461697  0.14697769  0.59174875    -0.57100
O182        O  0.71461177  0.16972652  0.55840764    -0.56300
O183        O  0.99926158  0.32329712  0.58853965    -0.57500
C184        C  0.00811808  0.29432177  0.55261748     0.75100
O185        O  0.02233141  0.27250899  0.59149408    -0.58600
C186        C  0.99184550  0.32378886  0.60270705     0.75100
C187        C  0.96462195  0.27798012  0.58542116     0.77500
Cd188      Cd  0.99818075  0.29237507  0.58682955     1.37500
O189        O  0.00287306  0.30725097  0.56034665    -0.57500
O190        O  0.97173967  0.28534165  0.57324677    -0.56300
C191        C  0.03006409  0.28241895  0.60135645     0.77500
O192        O  0.97361964  0.27559330  0.59843748    -0.58700
O193        O  0.00920330  0.28084254  0.56103069    -0.57100
O194        O  0.98689974  0.30989978  0.60879734    -0.57100
O195        O  0.02188976  0.29509175  0.60624363    -0.56300
O196        O  0.99691789  0.43593457  0.68607957    -0.57500
C197        C  0.99019569  0.38996014  0.67638827     0.75100
O198        O  0.02171534  0.40787874  0.72605706    -0.58600
C199        C  0.00333932  0.44579307  0.69688670     0.75100
C200        C  0.96782380  0.40833593  0.72261452     0.77500
Cd201      Cd  0.99896174  0.41084260  0.70437988     1.37500
O202        O  0.99937829  0.40287100  0.67417244    -0.57500
O203        O  0.97264741  0.42183016  0.71570312    -0.56300
C204        C  0.03122025  0.39931029  0.71656741     0.77500
O205        O  0.97831397  0.39639093  0.72288043    -0.58700
O206        O  0.98506450  0.38726657  0.69123941    -0.57100
O207        O  0.00803482  0.43929345  0.71065761    -0.57100
O208        O  0.02532890  0.39544980  0.70229516    -0.56300
O209        O  0.17549776  0.26411383  0.59544966    -0.57500
C210        C  0.12961282  0.28240781  0.59491280     0.75100
O211        O  0.16791197  0.32204011  0.60187895    -0.58600
C212        C  0.19079196  0.26784456  0.59272326     0.75100
C213        C  0.16411668  0.30150526  0.55353715     0.77500
Cd214      Cd  0.16429343  0.29296082  0.58954936     1.37500
O215        O  0.14049309  0.27237824  0.58896805    -0.57500
O216        O  0.15180685  0.29500941  0.56127554    -0.56300
C217        C  0.16807053  0.31710623  0.61710349     0.77500
O218        O  0.17666891  0.30540034  0.56261104    -0.58700
O219        O  0.13488343  0.29695740  0.59874627    -0.57100
O220        O  0.19372109  0.28305097  0.58908653    -0.57100
O221        O  0.16722867  0.30137363  0.61927151    -0.56300
O222        O  0.25189968  0.17417022  0.59610128    -0.57500
C223        C  0.28049527  0.12956851  0.59476509     0.75100
O224        O  0.29672932  0.17264766  0.56225125    -0.58600
C225        C  0.25425739  0.18970038  0.59333300     0.75100
C226        C  0.30588901  0.17279552  0.61541588     0.77500
Cd227      Cd  0.28131226  0.16540222  0.58916194     1.37500
O228        O  0.26717771  0.13801073  0.59725292    -0.57500
O229        O  0.29119056  0.16738032  0.61852619    -0.56300
C230        C  0.28655347  0.16461366  0.55287140     0.77500
O231        O  0.30920329  0.17562576  0.60001862    -0.58700
O232        O  0.29322984  0.13770279  0.58965779    -0.57100
O233        O  0.26903030  0.19389601  0.58895001    -0.57100
O234        O  0.27424604  0.15764142  0.56026186    -0.56300
O235        O  0.40790915  0.14247005  0.69333236    -0.57500
C236        C  0.40562553  0.19673470  0.72947360     0.75100
O237        O  0.43584283  0.18135823  0.69030047    -0.58600
C238        C  0.40458492  0.13484100  0.70692999     0.75100
C239        C  0.38470939  0.17735136  0.67817630     0.77500
Cd240      Cd  0.40965752  0.17086764  0.70416508     1.37500
O241        O  0.40201055  0.18155317  0.73288281    -0.57500
O242        O  0.38067332  0.17541389  0.69352202    -0.56300
C243        C  0.44578599  0.17332836  0.69981471     0.77500
O244        O  0.40035213  0.17705351  0.67493224    -0.58700
O245        O  0.41017633  0.19969821  0.71448612    -0.57100
O246        O  0.40357178  0.14389354  0.72007826    -0.57100
O247        O  0.43900041  0.16406372  0.71087426    -0.56300
O248        O  0.39856116  0.25819734  0.82296220    -0.57500
C249        C  0.39954168  0.28256717  0.86780299     0.75100
O250        O  0.43549512  0.30011737  0.82372003    -0.58600
C251        C  0.40287401  0.26021146  0.80770565     0.75100
C252        C  0.38358507  0.31282769  0.82470839     0.77500
Cd253      Cd  0.40786147  0.28665698  0.83248833     1.37500
O254        O  0.40489048  0.27016177  0.85936074    -0.57500
O255        O  0.38001965  0.29729634  0.82431669    -0.56300
C256        C  0.44433288  0.29141075  0.83374877     0.77500
O257        O  0.39885098  0.31649803  0.82785636    -0.58700
O258        O  0.39745511  0.29609303  0.85973654    -0.57100
O259        O  0.40895400  0.27445889  0.80396606    -0.57100
O260        O  0.43628564  0.28122739  0.84296788    -0.56300
O261        O  0.17370252  0.40338052  0.74334524    -0.57500
C262        C  0.12917500  0.40578164  0.72593613     0.75100
O263        O  0.17384975  0.44046201  0.70332439    -0.58600
C264        C  0.18893685  0.40737366  0.74090911     0.75100
C265        C  0.16792989  0.39055193  0.68654787     0.77500
Cd266      Cd  0.16329286  0.41291217  0.71532165     1.37500
O267        O  0.13892110  0.41482970  0.73476984    -0.57500
O268        O  0.16693218  0.38512747  0.70152532    -0.56300
C269        C  0.16133360  0.44893965  0.70831911     0.77500
O270        O  0.16722425  0.40637171  0.68483662    -0.58700
O271        O  0.13545442  0.39948891  0.71269150    -0.57100
O272        O  0.19235157  0.41343885  0.72657733    -0.57100
O273        O  0.14992902  0.44072085  0.71580595    -0.56300
O274        O  0.26501634  0.40640308  0.81808852    -0.57500
C275        C  0.29061054  0.40628810  0.86389591     0.75100
O276        O  0.32333127  0.40693768  0.82331083    -0.58600
C277        C  0.26824859  0.41002700  0.80284831     0.75100
C278        C  0.29578257  0.45094609  0.82971800     0.77500
Cd279      Cd  0.29346754  0.41460724  0.82870104     1.37500
O280        O  0.27772386  0.40490205  0.85450874    -0.57500
O281        O  0.28539853  0.44246772  0.83835666    -0.56300
C282        C  0.32069560  0.39124762  0.82216083     0.77500
O283        O  0.30554339  0.44261311  0.82024483    -0.58700
O284        O  0.30390179  0.41180003  0.85701751    -0.57100
O285        O  0.28309196  0.41502468  0.79975892    -0.57100
O286        O  0.30543246  0.38657598  0.82289956    -0.56300
O287        O  0.30547415  0.99962177  0.56204186    -0.57500
C288        C  0.31489965  0.98884789  0.61222386     0.75100
O289        O  0.26743567  0.01849332  0.59596132    -0.58600
C290        C  0.29297485  0.00467042  0.55345605     0.75100
C291        C  0.27349086  0.96368164  0.58679905     0.77500
Cd292      Cd  0.28883446  0.99645549  0.58847306     1.37500
O293        O  0.31838163  0.99298338  0.59715926    -0.57500
O294        O  0.28536193  0.96868316  0.57739752    -0.56300
C295        C  0.27873397  0.02964122  0.59826466     0.77500
O296        O  0.26739743  0.97446387  0.59691481    -0.58700
O297        O  0.29942163  0.98803983  0.61606141    -0.57100
O298        O  0.27904497  0.00584852  0.56115157    -0.57100
O299        O  0.29384550  0.02472787  0.59752570    -0.56300
O300        O  0.40745222  0.99874321  0.67277242    -0.57500
C301        C  0.44988068  0.00397323  0.70080174     0.75100
O302        O  0.40700619  0.02939010  0.69746502    -0.58600
C303        C  0.39211017  0.99477161  0.67507434     0.75100
C304        C  0.41249244  0.96588878  0.71428729     0.77500
Cd305      Cd  0.41420968  0.00035223  0.70286828     1.37500
O306        O  0.44090770  0.00222600  0.68767387    -0.57500
O307        O  0.42268311  0.97145203  0.70337180    -0.56300
C308        C  0.40617844  0.03465276  0.71247631     0.77500
O309        O  0.40318644  0.97675705  0.72150883    -0.58700
O310        O  0.44218934  0.00438975  0.71481320    -0.57100
O311        O  0.38711558  0.99367283  0.69022819    -0.57100
O312        O  0.40798962  0.02360939  0.72395666    -0.56300
O313        O  0.99391393  0.67555004  0.56238681    -0.57500
C314        C  0.98814242  0.66621536  0.60888908     0.75100
O315        O  0.01697837  0.71667071  0.59164235    -0.58600
C316        C  0.00032253  0.68629384  0.55242813     0.75100
C317        C  0.96208243  0.71073289  0.58588773     0.77500
Cd318      Cd  0.99473718  0.69426834  0.58718839     1.37500
O319        O  0.99223701  0.66408934  0.59358632    -0.57500
O320        O  0.96950359  0.70475071  0.57318001    -0.56300
C321        C  0.02809626  0.70638525  0.59664978     0.77500
O322        O  0.97048596  0.71085859  0.59948490    -0.58700
O323        O  0.98658243  0.68127262  0.61382152    -0.57100
O324        O  0.00467434  0.70023714  0.55882067    -0.57100
O325        O  0.02320880  0.69139332  0.59860313    -0.56300
O326        O  0.00186002  0.55325774  0.69418569    -0.57500
C327        C  0.99123378  0.60293006  0.68599586     0.75100
O328        O  0.97670142  0.58712486  0.73159086    -0.58600
C329        C  0.00791321  0.54449824  0.70611258     0.75100
C330        C  0.03351250  0.58921096  0.72037407     0.77500
Cd331      Cd  0.99970086  0.57888678  0.71128701     1.37500
O332        O  0.99534185  0.58805036  0.68194924    -0.57500
O333        O  0.02775817  0.58979562  0.70552344    -0.56300
C334        C  0.96663645  0.57579256  0.72634318     0.77500
O335        O  0.02306009  0.58516295  0.73188294    -0.58700
O336        O  0.99088297  0.60631313  0.70160129    -0.57100
O337        O  0.01034568  0.55184442  0.72007939    -0.57100
O338        O  0.97246241  0.56556862  0.71567430    -0.56300
O339        O  0.40509143  0.73903111  0.85613916    -0.57500
C340        C  0.40268422  0.74419940  0.80481478     0.75100
O341        O  0.43553827  0.70488552  0.82571994    -0.58600
C342        C  0.39966719  0.72811676  0.86643050     0.75100
C343        C  0.38316415  0.69323681  0.82531051     0.77500
Cd344      Cd  0.40782494  0.71973056  0.83162575     1.37500
O345        O  0.39845653  0.74706316  0.81992032    -0.57500
O346        O  0.37936021  0.70859428  0.82690587    -0.56300
C347        C  0.44441899  0.71555047  0.83366019     0.77500
O348        O  0.39877657  0.68984586  0.82604419    -0.58700
O349        O  0.40889297  0.72985818  0.80195818    -0.57100
O350        O  0.39760640  0.71344734  0.86059180    -0.57100
O351        O  0.43638188  0.72731454  0.84062411    -0.56300
O352        O  0.40327044  0.81976929  0.72722255    -0.57500
C353        C  0.41441611  0.86611009  0.70455187     0.75100
O354        O  0.43926059  0.82153116  0.68401431    -0.58600
C355        C  0.40558431  0.80433770  0.72399600     0.75100
C356        C  0.38782728  0.82628641  0.67150068     0.77500
Cd357      Cd  0.41259255  0.82999200  0.69883203     1.37500
O358        O  0.40452547  0.85712874  0.71335998    -0.57500
O359        O  0.38373620  0.83064303  0.68629156    -0.56300
C360        C  0.44870746  0.82392773  0.69672454     0.77500
O361        O  0.40336000  0.82335015  0.66925313    -0.58700
O362        O  0.42259957  0.85847888  0.69323595    -0.57100
O363        O  0.41009437  0.80093185  0.70908217    -0.57100
O364        O  0.44140759  0.82875283  0.71004880    -0.56300
O365        O  0.26758864  0.85510596  0.58705356    -0.57500
C366        C  0.26079061  0.80214729  0.58648381     0.75100
O367        O  0.30089935  0.82429296  0.55265100    -0.58600
C368        C  0.27717494  0.86481149  0.57870700     0.75100
C369        C  0.30982382  0.82701902  0.60664223     0.77500
Cd370      Cd  0.28450091  0.82916797  0.57981604     1.37500
O371        O  0.25610740  0.81737613  0.58674517    -0.57500
O372        O  0.29449304  0.83041737  0.60936590    -0.56300
C373        C  0.28771780  0.82280947  0.54367952     0.77500
O374        O  0.31364728  0.82404430  0.59139194    -0.58700
O375        O  0.27635574  0.79967105  0.58395317    -0.57100
O376        O  0.28968468  0.85802355  0.57162278    -0.57100
O377        O  0.27385461  0.82406709  0.55142614    -0.56300
O378        O  0.26661781  0.59397040  0.81459437    -0.57500
C379        C  0.28857505  0.59111646  0.86108231     0.75100
O380        O  0.31024053  0.56127832  0.81478446    -0.58600
C381        C  0.27035170  0.59227434  0.79916270     0.75100
C382        C  0.32152111  0.61304872  0.82116388     0.77500
Cd383      Cd  0.29548249  0.58725660  0.82541106     1.37500
O384        O  0.27656501  0.59013481  0.85058033    -0.57500
O385        O  0.30622274  0.61673053  0.82382143    -0.56300
C386        C  0.30172365  0.55118211  0.82376801     0.77500
O387        O  0.32473706  0.59749539  0.81998891    -0.58700
O388        O  0.30331028  0.59079141  0.85497561    -0.57100
O389        O  0.28557189  0.58883478  0.79602034    -0.57100
O390        O  0.29096524  0.55781014  0.83339579    -0.56300
O391        O  0.17065589  0.73523337  0.59272936    -0.57500
C392        C  0.12820111  0.70553045  0.59460413     0.75100
O393        O  0.17197228  0.69269453  0.55711821    -0.58600
C394        C  0.18636139  0.73399646  0.59012145     0.75100
C395        C  0.17523411  0.68159195  0.61137419     0.77500
Cd396      Cd  0.16387688  0.70542545  0.58578118     1.37500
O397        O  0.13626771  0.71918906  0.59279222    -0.57500
O398        O  0.17242883  0.69695420  0.61442656    -0.56300
C399        C  0.16315356  0.70311080  0.54883562     0.77500
O400        O  0.17357939  0.67708582  0.59608423    -0.58700
O401        O  0.13658001  0.69219982  0.59248126    -0.57100
O402        O  0.19163692  0.71952003  0.58618578    -0.57100
O403        O  0.15496229  0.71349901  0.55759315    -0.56300
O404        O  0.17692064  0.59219137  0.73712908    -0.57500
C405        C  0.13347724  0.59314927  0.71190516     0.75100
O406        O  0.17482841  0.59172665  0.67733319    -0.58600
C407        C  0.19269875  0.59144454  0.73489546     0.75100
C408        C  0.17027864  0.54888454  0.70143418     0.77500
Cd409      Cd  0.16908968  0.58519209  0.70737703     1.37500
O410        O  0.14190324  0.58681414  0.72388942    -0.57500
O411        O  0.15767275  0.55622605  0.70770965    -0.56300
C412        C  0.17667815  0.60745812  0.67918256     0.77500
O413        O  0.18244955  0.55833188  0.69728209    -0.58700
O414        O  0.14163640  0.59625151  0.69855052    -0.57100
O415        O  0.19745495  0.58853030  0.71998022    -0.57100
O416        O  0.17567066  0.61287734  0.69418114    -0.56300
O417        O  0.59437533  0.32181854  0.99162582    -0.57500
C418        C  0.55431330  0.29226006  0.98472843     0.75100
O419        O  0.59350899  0.27112452  0.96596520    -0.58600
C420        C  0.60948449  0.32051285  0.99675772     0.75100
C421        C  0.59059793  0.27757734  0.02410049     0.77500
Cd422      Cd  0.58966270  0.29124705  0.99042487     1.37500
O423        O  0.56256537  0.30583472  0.98664372    -0.57500
O424        O  0.58038721  0.28864609  0.01913843    -0.56300
C425        C  0.60098522  0.28202257  0.95694160     0.77500
O426        O  0.60051109  0.27160829  0.01300032    -0.58700
O427        O  0.56265114  0.27873786  0.98482955    -0.57100
O428        O  0.61498389  0.30576277  0.99917321    -0.57100
O429        O  0.60452900  0.29574630  0.96409422    -0.56300
O430        O  0.66153993  0.41849321  0.98616613    -0.57500
C431        C  0.68841108  0.46186504  0.98151406     0.75100
O432        O  0.70955325  0.41659491  0.01173857    -0.58600
C433        C  0.66424772  0.40396809  0.99220647     0.75100
C434        C  0.70623688  0.41673607  0.95605538     0.77500
Cd435      Cd  0.69169080  0.42691558  0.98777987     1.37500
O436        O  0.67575440  0.45339280  0.98646001    -0.57500
O437        O  0.69073379  0.41561649  0.95958024    -0.56300
C438        C  0.70367780  0.42739622  0.02195600     0.77500
O439        O  0.71588037  0.42168502  0.96784928    -0.58700
O440        O  0.70195194  0.45394402  0.97889807    -0.57100
O441        O  0.67932409  0.40059033  0.99611668    -0.57100
O442        O  0.69371966  0.43812276  0.01584492    -0.56300
O443        O  0.59642823  0.25767175  0.17022932    -0.57500
C444        C  0.58439458  0.28024096  0.12406085     0.75100
O445        O  0.55902116  0.29897153  0.17028934    -0.58600
C446        C  0.59436948  0.26046157  0.18583913     0.75100
C447        C  0.60953975  0.31433960  0.16203721     0.77500
Cd448      Cd  0.58616483  0.28573679  0.16031759     1.37500
O449        O  0.59525878  0.27249599  0.13281269    -0.57500
O450        O  0.61429131  0.29954869  0.15868544    -0.56300
C451        C  0.55008156  0.28621928  0.16653772     0.77500
O452        O  0.59395757  0.31600593  0.16514005    -0.58700
O453        O  0.57494992  0.29023612  0.13201727    -0.57100
O454        O  0.58967591  0.27517037  0.18965059    -0.57100
O455        O  0.55791063  0.27380502  0.16043042    -0.56300
O456        O  0.58188239  0.14260789  0.30085883    -0.57500
C457        C  0.59086192  0.19682533  0.26444926     0.75100
O458        O  0.56056073  0.17751023  0.30636231    -0.58600
C459        C  0.58724809  0.13423399  0.28843163     0.75100
C460        C  0.61356184  0.17595862  0.31435904     0.77500
Cd461      Cd  0.58656075  0.17066230  0.29001583     1.37500
O462        O  0.59366021  0.18151284  0.26092771    -0.57500
O463        O  0.61594326  0.16990164  0.29978596    -0.56300
C464        C  0.55050549  0.17267931  0.29487051     0.77500
O465        O  0.59854258  0.18019359  0.31776910    -0.58700
O466        O  0.58673366  0.19980880  0.27957197    -0.57100
O467        O  0.59285253  0.14273825  0.27604776    -0.57100
O468        O  0.55720558  0.16744878  0.28137840    -0.56300
O469        O  0.74123025  0.40146542  0.16353488    -0.57500
C470        C  0.71484610  0.40930626  0.12001698     0.75100
O471        O  0.68243965  0.39605699  0.16325768    -0.58600
C472        C  0.73913543  0.40099231  0.17937814     0.75100
C473        C  0.70900330  0.44334159  0.16354790     0.77500
Cd474      Cd  0.71141052  0.40762902  0.15630771     1.37500
O475        O  0.72423701  0.39972376  0.12860086    -0.57500
O476        O  0.72251377  0.43585515  0.15981670    -0.56300
C477        C  0.68610883  0.38094414  0.15973638     0.77500
O478        O  0.69585910  0.43420090  0.16444945    -0.58700
O479        O  0.70416892  0.41777009  0.12819296    -0.57100
O480        O  0.72406215  0.40245323  0.18449920    -0.57100
O481        O  0.70125592  0.37837329  0.15551005    -0.56300
O482        O  0.82040182  0.40523784  0.25200670    -0.57500
C483        C  0.86516993  0.41312666  0.27026923     0.75100
O484        O  0.83439627  0.43669141  0.29714636    -0.58600
C485        C  0.80520269  0.40225229  0.25598804     0.75100
C486        C  0.83017453  0.38347719  0.30908442     0.77500
Cd487      Cd  0.83040356  0.40923871  0.28204609     1.37500
O488        O  0.85719635  0.39953279  0.26770530    -0.57500
O489        O  0.83602878  0.38106457  0.29447035    -0.56300
C490        C  0.82187923  0.44398925  0.29048536     0.77500
O491        O  0.82413224  0.39797333  0.31161478    -0.58700
O492        O  0.85691340  0.42465760  0.27740143    -0.57100
O493        O  0.80215848  0.40159454  0.27163658    -0.57100
O494        O  0.81272088  0.43490454  0.28109902    -0.56300
O495        O  0.73535833  0.18624614  0.40377752    -0.57500
C496        C  0.70560958  0.13981295  0.41032347     0.75100
O497        O  0.69525084  0.18294523  0.44282593    -0.58600
C498        C  0.73207321  0.20166682  0.40625423     0.75100
C499        C  0.67984015  0.18260044  0.39041588     0.77500
Cd500      Cd  0.70694868  0.17602150  0.41404877     1.37500
O501        O  0.71946280  0.14745949  0.40765658    -0.57500
O502        O  0.69416658  0.17719854  0.38591852    -0.56300
C503        C  0.70771798  0.17673939  0.45066687     0.77500
O504        O  0.67816553  0.18602455  0.40598399    -0.58700
O505        O  0.69319474  0.14892452  0.41423784    -0.57100
O506        O  0.71732649  0.20487070  0.41139285    -0.57100
O507        O  0.71929260  0.17066811  0.44159551    -0.56300
O508        O  0.86066709  0.30234053  0.42317950    -0.57500
C509        C  0.80954871  0.26640940  0.40681183     0.75100
O510        O  0.83095774  0.28523534  0.44369908    -0.58600
C511        C  0.86905456  0.29081229  0.41617972     0.75100
C512        C  0.82782632  0.31966762  0.38794092     0.77500
Cd513      Cd  0.83277533  0.29402087  0.41396935     1.37500
O514        O  0.82536683  0.26430344  0.40645355    -0.57500
O515        O  0.83708033  0.30694405  0.38568510    -0.56300
C516        C  0.82762558  0.29943951  0.45002346     0.77500
O517        O  0.82051665  0.32047155  0.40212981    -0.58700
O518        O  0.80464944  0.28121938  0.40985157    -0.57100
O519        O  0.86074382  0.28053749  0.40716953    -0.57100
O520        O  0.82590893  0.31139742  0.43959232    -0.56300
O521        O  0.58223154  0.67055124  0.00481285    -0.57500
C522        C  0.53838993  0.69775071  0.99701271     0.75100
O523        O  0.58298461  0.72050813  0.02423326    -0.58600
C524        C  0.59765202  0.67409301  0.00725420     0.75100
C525        C  0.58216183  0.70902026  0.96779627     0.77500
Cd526      Cd  0.57381867  0.70003914  0.00179478     1.37500
O527        O  0.54700582  0.68473010  0.00023993    -0.57500
O528        O  0.57917338  0.69422380  0.97282433    -0.56300
C529        C  0.57434209  0.71298878  0.03550125     0.77500
O530        O  0.58222080  0.72048158  0.97901144    -0.58700
O531        O  0.54636631  0.71153319  0.99572447    -0.57100
O532        O  0.60167996  0.68951892  0.00722084    -0.57100
O533        O  0.56536225  0.70077667  0.03062051    -0.56300
O534        O  0.68423249  0.56972484  0.00522704    -0.57500
C535        C  0.67883036  0.61646294  0.00743167     0.75100
O536        O  0.71877614  0.60437855  0.02688455    -0.58600
C537        C  0.69216819  0.55962486  0.99578283     0.75100
C538        C  0.71565308  0.60094731  0.96706864     0.77500
Cd539      Cd  0.70482157  0.59273751  0.00104820     1.37500
O540        O  0.67561680  0.60085833  0.00660276    -0.57500
O541        O  0.70070289  0.60201053  0.97236226    -0.56300
C542        C  0.72284942  0.59021658  0.03285308     0.77500
O543        O  0.72668493  0.59710909  0.97801413    -0.58700
O544        O  0.69410500  0.62085241  0.00568166    -0.57100
O545        O  0.70548196  0.56511366  0.98890186    -0.57100
O546        O  0.72094428  0.57783289  0.02306231    -0.56300
O547        O  0.55939682  0.99640349  0.30223992    -0.57500
C548        C  0.61100418  0.99848586  0.31552535     0.75100
O549        O  0.59617415  0.97482719  0.26897387    -0.58600
C550        C  0.55138944  0.99651618  0.28837320     0.75100
C551        C  0.59033590  0.03367733  0.28183737     0.77500
Cd552      Cd  0.58715638  0.99834435  0.28903304     1.37500
O553        O  0.59529906  0.99801410  0.31861367    -0.57500
O554        O  0.58340737  0.02757982  0.29485979    -0.56300
C555        C  0.59207268  0.96370870  0.27987369     0.77500
O556        O  0.59605849  0.02313331  0.27114157    -0.58700
O557        O  0.61543849  0.99893248  0.30015401    -0.57100
O558        O  0.56007549  0.99756532  0.27496552    -0.57100
O559        O  0.58656383  0.96911828  0.29380719    -0.56300
O560        O  0.67870130  0.00572286  0.44779651    -0.57500
C561        C  0.66843582  0.00191349  0.39736884     0.75100
O562        O  0.71590474  0.02785456  0.41400550    -0.58600
C563        C  0.69176245  0.00706978  0.45691419     0.75100
C564        C  0.70725501  0.97122889  0.41745646     0.77500
Cd565      Cd  0.69475318  0.00506831  0.42121213     1.37500
O566        O  0.66500053  0.00310963  0.41294796    -0.57500
O567        O  0.69425724  0.97537276  0.42564428    -0.56300
C568        C  0.70478685  0.03934662  0.41423539     0.77500
O569        O  0.71565953  0.98320618  0.41085792    -0.58700
O570        O  0.68386937  0.00211962  0.39328251    -0.57100
O571        O  0.70582998  0.00760407  0.44935034    -0.57100
O572        O  0.68985552  0.03464040  0.41726420    -0.56300
O573        O  0.72048253  0.86280456  0.41000321    -0.57500
C574        C  0.73455877  0.81071706  0.40993496     0.75100
O575        O  0.68972636  0.82656813  0.44186928    -0.58600
C576        C  0.70888761  0.87070879  0.41762047     0.75100
C577        C  0.68327449  0.83040516  0.38752521     0.77500
Cd578      Cd  0.70700727  0.83426251  0.41592923     1.37500
O579        O  0.73708150  0.82646747  0.41043392    -0.57500
O580        O  0.69754507  0.83747314  0.38628599    -0.56300
C581        C  0.70178107  0.82861037  0.45222496     0.77500
O582        O  0.67980547  0.82442086  0.40197336    -0.58700
O583        O  0.71936029  0.80600636  0.41146217    -0.57100
O584        O  0.69719705  0.86179731  0.42379916    -0.57100
O585        O  0.71580840  0.83260640  0.44574877    -0.56300
O586        O  0.84997375  0.72057720  0.40321023    -0.57500
C587        C  0.79785536  0.73225387  0.40872361     0.75100
O588        O  0.81886245  0.67674569  0.40229244    -0.58600
C589        C  0.85979063  0.71140491  0.41179560     0.75100
C590        C  0.81945755  0.70168509  0.44988776     0.77500
Cd591      Cd  0.82350993  0.70633310  0.41356246     1.37500
O592        O  0.81343651  0.73579790  0.40806571    -0.57500
O593        O  0.82550484  0.71488129  0.44330199    -0.56300
C594        C  0.81964915  0.68076977  0.38682879     0.77500
O595        O  0.81481266  0.69029923  0.43963536    -0.58700
O596        O  0.79429015  0.71689987  0.41109558    -0.57100
O597        O  0.85281079  0.70043019  0.42099592    -0.57100
O598        O  0.82163269  0.69629458  0.38393279    -0.56300
O599        O  0.58963294  0.81855615  0.25992003    -0.57500
C600        C  0.58628702  0.86326511  0.28636769     0.75100
O601        O  0.55858527  0.81578935  0.30470826    -0.58600
C602        C  0.59041936  0.80285195  0.26237073     0.75100
C603        C  0.60936622  0.82350982  0.31780158     0.77500
Cd604      Cd  0.58474533  0.82686657  0.28997396     1.37500
O605        O  0.59493839  0.85418280  0.27649438    -0.57500
O606        O  0.61349293  0.82899319  0.30338020    -0.56300
C607        C  0.54826314  0.82240010  0.29447189     0.77500
O608        O  0.59409883  0.81897075  0.31927648    -0.58700
O609        O  0.57723209  0.85545917  0.29693657    -0.57100
O610        O  0.58955408  0.79823805  0.27762083    -0.57100
O611        O  0.55479846  0.83078144  0.28258575    -0.56300
O612        O  0.81904765  0.58638417  0.26145040    -0.57500
C613        C  0.86051254  0.58707294  0.28201320     0.75100
O614        O  0.82130256  0.58819780  0.32264182    -0.58600
C615        C  0.80317304  0.58579162  0.26296929     0.75100
C616        C  0.82406254  0.54447541  0.29912399     0.77500
Cd617      Cd  0.82559476  0.58076461  0.29181034     1.37500
O618        O  0.85163790  0.59822204  0.28904447    -0.57500
O619        O  0.81178808  0.55209872  0.29243366    -0.56300
C620        C  0.81922352  0.60384777  0.32047376     0.77500
O621        O  0.83628393  0.55372472  0.30362674    -0.58700
O622        O  0.85308674  0.57334273  0.27886162    -0.57100
O623        O  0.79770282  0.58352720  0.27780402    -0.57100
O624        O  0.81907256  0.60859959  0.30525961    -0.56300
O625        O  0.58491344  0.71623342  0.14376550    -0.57500
C626        C  0.58748100  0.72558517  0.19730357     0.75100
O627        O  0.55421525  0.68253576  0.17678951    -0.58600
C628        C  0.57476549  0.70711490  0.13540234     0.75100
C629        C  0.60711590  0.67603083  0.17255199     0.77500
Cd630      Cd  0.57963887  0.70067177  0.17126124     1.37500
O631        O  0.58590219  0.72975217  0.18194197    -0.57500
O632        O  0.60889105  0.69090299  0.16713665    -0.56300
C633        C  0.54414676  0.69481792  0.17822511     0.77500
O634        O  0.59241207  0.67216582  0.17755418    -0.58700
O635        O  0.58594940  0.71003535  0.20043732    -0.57100
O636        O  0.56763657  0.69542406  0.14350356    -0.57100
O637        O  0.55075138  0.70930851  0.17768278    -0.56300
O638        O  0.73379662  0.58497503  0.17895817    -0.57500
C639        C  0.71645811  0.58720667  0.13210823     0.75100
O640        O  0.68755695  0.55338074  0.16435181    -0.58600
C641        C  0.72904609  0.58418629  0.19417362     0.75100
C642        C  0.67590130  0.60195436  0.17177848     0.77500
Cd643      Cd  0.70510522  0.57982126  0.16646741     1.37500
O644        O  0.71719033  0.59805457  0.14373144    -0.57500
O645        O  0.69044578  0.60735066  0.16806994    -0.56300
C646        C  0.69970886  0.54350133  0.16735189     0.77500
O647        O  0.67462982  0.58614968  0.17337098    -0.58700
O648        O  0.71077577  0.57295022  0.13633588    -0.57100
O649        O  0.71339806  0.58201724  0.19643592    -0.57100
O650        O  0.71384685  0.55043333  0.16997799    -0.56300
O651        O  0.31624819  0.55555721  0.99745403    -0.57500
C652        C  0.32311252  0.60707533  0.00619605     0.75100
O653        O  0.28275091  0.58798209  0.97019472    -0.58600
C654        C  0.30393679  0.54608336  0.99349785     0.75100
C655        C  0.28184627  0.58287821  0.02746335     0.77500
Cd656      Cd  0.29978710  0.58165034  0.99625405     1.37500
O657        O  0.32826368  0.59249704  0.00223361    -0.57500
O658        O  0.29456490  0.57374440  0.02473471    -0.56300
C659        C  0.29589622  0.59021530  0.96124065     0.77500
O660        O  0.27613549  0.59115349  0.01497601    -0.58700
O661        O  0.30736733  0.60953749  0.00573056    -0.57100
O662        O  0.28998355  0.55321734  0.99059299    -0.57100
O663        O  0.30988701  0.58894025  0.96873104    -0.56300
O664        O  0.40295025  0.68310682  0.99723107    -0.57500
C665        C  0.43944673  0.71224081  0.99254134     0.75100
O666        O  0.39951070  0.73388871  0.97399676    -0.58600
C667        C  0.38860256  0.68186563  0.00418587     0.75100
C668        C  0.40257977  0.72702631  0.03223969     0.77500
Cd669      Cd  0.40397394  0.71378143  0.99831914     1.37500
O670        O  0.43083414  0.69905960  0.99526402    -0.57500
O671        O  0.41509760  0.71967410  0.02588048    -0.56300
C672        C  0.39065608  0.72359262  0.96554714     0.77500
O673        O  0.39049634  0.73020663  0.02222818    -0.58700
O674        O  0.43141837  0.72595038  0.99166260    -0.57100
O675        O  0.38168254  0.69543136  0.00881875    -0.57100
O676        O  0.38655841  0.71021959  0.97307516    -0.56300
O677        O  0.99405046  0.55198256  0.30356173    -0.57500
C678        C  0.98614668  0.60264954  0.31616776     0.75100
O679        O  0.01673743  0.58955634  0.27150651    -0.58600
C680        C  0.99680575  0.54436156  0.28974993     0.75100
C681        C  0.95940583  0.58005134  0.27621304     0.77500
Cd682      Cd  0.99271456  0.57962497  0.28995773     1.37500
O683        O  0.98970195  0.58745268  0.31948250    -0.57500
O684        O  0.96400397  0.57023786  0.28785319    -0.56300
C685        C  0.02741148  0.58787483  0.28339803     0.77500
O686        O  0.97061740  0.58962578  0.26980884    -0.58700
O687        O  0.98535342  0.60678252  0.30076860    -0.57100
O688        O  0.99784459  0.55326729  0.27651444    -0.57100
O689        O  0.02161282  0.58328681  0.29752344    -0.56300
O690        O  0.99401362  0.66102719  0.41014358    -0.57500
C691        C  0.00156271  0.69049696  0.45255599     0.75100
O692        O  0.01554657  0.71271111  0.40832334    -0.58600
C693        C  0.99040821  0.66364088  0.39477243     0.75100
C694        C  0.95949928  0.70059429  0.41892499     0.77500
Cd695      Cd  0.99436020  0.69079206  0.41744598     1.37500
O696        O  0.99832113  0.67686944  0.44485410    -0.57500
O697        O  0.96593809  0.68861632  0.42712602    -0.56300
C698        C  0.02732751  0.70191508  0.40731435     0.77500
O699        O  0.96948036  0.70907427  0.40959633    -0.58700
O700        O  0.00161620  0.70385150  0.44385098    -0.57100
O701        O  0.98864979  0.67880163  0.39018224    -0.57100
O702        O  0.02321689  0.68675707  0.40987315    -0.56300
O703        O  0.25476687  0.59827890  0.17202358    -0.57500
C704        C  0.27760322  0.58343967  0.12685788     0.75100
O705        O  0.31184539  0.59450720  0.17156632    -0.58600
C706        C  0.25657310  0.59477167  0.18751194     0.75100
C707        C  0.28409397  0.55093542  0.16814359     0.77500
Cd708      Cd  0.28265218  0.58682634  0.16286006     1.37500
O709        O  0.26930297  0.59449935  0.13481035    -0.57500
O710        O  0.27081438  0.55879835  0.16428486    -0.56300
C711        C  0.31154584  0.60941128  0.16598284     0.77500
O712        O  0.29723423  0.55982838  0.17035332    -0.58700
O713        O  0.28792896  0.57498970  0.13544871    -0.57100
O714        O  0.27074304  0.58880024  0.19164447    -0.57100
O715        O  0.29778813  0.61404007  0.15941497    -0.56300
O716        O  0.17542311  0.59334702  0.26079909    -0.57500
C717        C  0.12803378  0.58664040  0.28915791     0.75100
O718        O  0.17125877  0.55544210  0.30183984    -0.58600
C719        C  0.19067382  0.58984777  0.26416649     0.75100
C720        C  0.17217254  0.60741623  0.31611856     0.77500
Cd721      Cd  0.16447903  0.58360173  0.28919237     1.37500
O722        O  0.13639240  0.59127367  0.27627986    -0.57500
O723        O  0.16743107  0.61213214  0.30161422    -0.56300
C724        C  0.16627987  0.54717992  0.28907071     0.77500
O725        O  0.17392496  0.59168243  0.31807222    -0.58700
O726        O  0.13654288  0.58097445  0.30135778    -0.57100
O727        O  0.19343497  0.58431402  0.27886545    -0.57100
O728        O  0.16065020  0.55575810  0.27689643    -0.56300
O729        O  0.40165974  0.73521841  0.17798306    -0.57500
C730        C  0.41099962  0.71598942  0.13114693     0.75100
O731        O  0.43519851  0.69083409  0.17261328    -0.58600
C732        C  0.39991428  0.73027165  0.19308464     0.75100
C733        C  0.38174952  0.68226836  0.16625628     0.77500
Cd734      Cd  0.40864532  0.70713747  0.16644080     1.37500
O735        O  0.40014256  0.72280492  0.14061199    -0.57500
O736        O  0.37985067  0.69752803  0.16232082    -0.56300
C737        C  0.44401614  0.70404114  0.17479928     0.77500
O738        O  0.39652481  0.67800601  0.17064076    -0.58700
O739        O  0.42056828  0.70532941  0.13801817    -0.57100
O740        O  0.40151729  0.71463581  0.19560309    -0.57100
O741        O  0.43631424  0.71786304  0.17349699    -0.56300
O742        O  0.40251809  0.85452942  0.27854615    -0.57500
C743        C  0.40139951  0.80409033  0.26087005     0.75100
O744        O  0.43882089  0.81608681  0.29974756    -0.58600
C745        C  0.40904144  0.86189836  0.29118151     0.75100
C746        C  0.38563535  0.82057857  0.31535617     0.77500
Cd747      Cd  0.41040780  0.82593187  0.28883653     1.37500
O748        O  0.40191485  0.81994451  0.25928325    -0.57500
O749        O  0.38187122  0.82655345  0.30105537    -0.56300
C750        C  0.44709575  0.82361756  0.28825077     0.77500
O751        O  0.40084860  0.81598021  0.31722472    -0.58700
O752        O  0.40434128  0.79841711  0.27550497    -0.57100
O753        O  0.41579617  0.85258949  0.30216856    -0.57100
O754        O  0.43839927  0.83134053  0.27740013    -0.56300
O755        O  0.17004053  0.73570070  0.40556420    -0.57500
C756        C  0.12762171  0.70393217  0.40618516     0.75100
O757        O  0.17416299  0.67830452  0.39839074    -0.58600
C758        C  0.18593441  0.73434215  0.40644963     0.75100
C759        C  0.16623337  0.69964681  0.44739422     0.77500
Cd760      Cd  0.16378101  0.70541996  0.41095786     1.37500
O761        O  0.13526646  0.71789301  0.40469009    -0.57500
O762        O  0.15804878  0.71165797  0.44097609    -0.56300
C763        C  0.17208241  0.68273533  0.38315582     0.77500
O764        O  0.17352462  0.68999028  0.43697695    -0.58700
O765        O  0.13664211  0.69140960  0.40989913    -0.57100
O766        O  0.19149159  0.71966442  0.40900924    -0.57100
O767        O  0.16716811  0.69769468  0.38093649    -0.56300
O768        O  0.25479996  0.81854862  0.40451060    -0.57500
C769        C  0.27398832  0.86662061  0.40651188     0.75100
O770        O  0.30352960  0.83059813  0.43243022    -0.58600
C771        C  0.25978968  0.80342806  0.40425181     0.75100
C772        C  0.30855211  0.82757590  0.38059152     0.77500
Cd773      Cd  0.28364420  0.83115175  0.40764205     1.37500
O774        O  0.26938482  0.85662586  0.39495941    -0.57500
O775        O  0.29335639  0.83149055  0.37793947    -0.56300
C776        C  0.29224451  0.82657320  0.44308027     0.77500
O777        O  0.31247215  0.82510182  0.39588687    -0.58700
O778        O  0.28226976  0.86012483  0.41842004    -0.57100
O779        O  0.27557908  0.80134783  0.40483773    -0.57100
O780        O  0.27755367  0.82444999  0.43722289    -0.56300
O781        O  0.32528607  0.40285465  0.99818066    -0.57500
C782        C  0.29543493  0.44636406  0.99078768     0.75100
O783        O  0.27440340  0.40186569  0.97454674    -0.58600
C784        C  0.32194143  0.38767656  0.00197919     0.75100
C785        C  0.28443569  0.41010215  0.03126715     0.77500
Cd786      Cd  0.29532303  0.41087089  0.99661422     1.37500
O787        O  0.30907100  0.43847268  0.99337038    -0.57500
O788        O  0.29683526  0.41847367  0.02572617    -0.56300
C789        C  0.28571640  0.40071667  0.96320540     0.77500
O790        O  0.27577243  0.40210771  0.02033781    -0.58700
O791        O  0.28198718  0.43771172  0.99062046    -0.57100
O792        O  0.30650790  0.38362869  0.00301810    -0.57100
O793        O  0.30076629  0.40317702  0.96786991    -0.56300
O794        O  0.44548177  0.31256232  0.99492751    -0.57500
C795        C  0.39884679  0.32426319  0.00188416     0.75100
O796        O  0.41516379  0.27182961  0.97788673    -0.58600
C797        C  0.45508283  0.30014030  0.99244681     0.75100
C798        C  0.41754199  0.28328738  0.03276055     0.77500
Cd799      Cd  0.41991980  0.29539702  0.99860156     1.37500
O800        O  0.41402450  0.32574523  0.99710308    -0.57500
O801        O  0.42763061  0.29452597  0.02770732    -0.56300
C802        C  0.40932390  0.28163029  0.96671903     0.77500
O803        O  0.40880447  0.27602522  0.02147779    -0.58700
O804        O  0.39374962  0.30953539  0.00531210    -0.57100
O805        O  0.44829828  0.28571086  0.99278498    -0.57100
O806        O  0.40760156  0.29681415  0.97095293    -0.56300
O807        O  0.31220969  0.99744659  0.44380824    -0.57500
C808        C  0.31849371  0.99383222  0.39298702     0.75100
O809        O  0.27362968  0.97607293  0.40853731    -0.58600
C810        C  0.30088792  0.00266011  0.45383466     0.75100
C811        C  0.28488325  0.03349760  0.41152479     0.77500
Cd812      Cd  0.29393030  0.99887167  0.41865578     1.37500
O813        O  0.32291249  0.99694929  0.40805385    -0.57500
O814        O  0.29967404  0.02770549  0.41100044    -0.56300
C815        C  0.27909195  0.96543032  0.41916993     0.77500
O816        O  0.27320663  0.02287604  0.41458418    -0.58700
O817        O  0.30283078  0.99259541  0.39015969    -0.57100
O818        O  0.28678303  0.00642367  0.44737337    -0.57100
O819        O  0.28996202  0.97077218  0.42949769    -0.56300
O820        O  0.44288876  0.99544941  0.31324290    -0.57500
C821        C  0.39353150  0.99648835  0.32662287     0.75100
O822        O  0.40850191  0.01825985  0.27697379    -0.58600
C823        C  0.45175770  0.99592050  0.29996689     0.75100
C824        C  0.40983798  0.96210774  0.28986436     0.77500
Cd825      Cd  0.41590802  0.99639682  0.29874094     1.37500
O826        O  0.40930231  0.99821808  0.32865026    -0.57500
O827        O  0.41674040  0.96707638  0.30331763    -0.56300
C828        C  0.40983752  0.03006395  0.28774335     0.77500
O829        O  0.40544378  0.97343952  0.27941378    -0.58700
O830        O  0.38824088  0.99500276  0.31159847    -0.57100
O831        O  0.44392440  0.99690414  0.28607954    -0.57100
O832        O  0.41366461  0.02586202  0.30260968    -0.56300
O833        O  0.00437217  0.31631799  0.44398892    -0.57500
C834        C  0.99812846  0.32567831  0.39479866     0.75100
O835        O  0.02554798  0.27745050  0.41178158    -0.58600
C836        C  0.00769802  0.30400416  0.45355979     0.75100
C837        C  0.96932029  0.28596282  0.41755451     0.77500
Cd838      Cd  0.00326868  0.29918412  0.41833961     1.37500
O839        O  0.00217597  0.32878143  0.40994927    -0.57500
O840        O  0.97433527  0.29734428  0.42748435    -0.56300
C841        C  0.03707290  0.28848997  0.41002252     0.77500
O842        O  0.98055140  0.27918363  0.40836882    -0.58700
O843        O  0.99650013  0.31035423  0.39076095    -0.57100
O844        O  0.00912163  0.28971514  0.44665076    -0.57100
O845        O  0.03252378  0.30363007  0.41131780    -0.56300
O846        O  0.99435629  0.43457886  0.30770773    -0.57500
C847        C  0.98977735  0.38567444  0.31542501     0.75100
O848        O  0.97558273  0.39755099  0.26819671    -0.58600
C849        C  0.99775946  0.44470809  0.29580966     0.75100
C850        C  0.03143632  0.40416694  0.28176929     0.77500
Cd851      Cd  0.99606836  0.40962833  0.28940077     1.37500
O852        O  0.99224651  0.40105799  0.31878777    -0.57500
O853        O  0.02531142  0.40541993  0.29639713    -0.56300
C854        C  0.96422351  0.40827843  0.27152438     0.77500
O855        O  0.02090410  0.40462579  0.26968764    -0.58700
O856        O  0.98945449  0.38165256  0.29998178    -0.57100
O857        O  0.00053502  0.43836979  0.28140915    -0.57100
O858        O  0.96822821  0.41971998  0.28182226    -0.56300
O859        O  0.40706974  0.27660309  0.14176908    -0.57500
C860        C  0.40941497  0.26640229  0.19637604     0.75100
O861        O  0.43985538  0.30764136  0.17596564    -0.58600
C862        C  0.41315484  0.28877650  0.13331155     0.75100
C863        C  0.38563657  0.31477017  0.17422166     0.77500
Cd864      Cd  0.41335464  0.29116482  0.16970870     1.37500
O865        O  0.40782571  0.26224415  0.18099061    -0.57500
O866        O  0.38361090  0.29995316  0.16870857    -0.56300
C867        C  0.44966461  0.29558914  0.17229111     0.77500
O868        O  0.40060100  0.31876640  0.17830979    -0.58700
O869        O  0.41199995  0.28186278  0.19920570    -0.57100
O870        O  0.41836115  0.30123691  0.14174657    -0.57100
O871        O  0.44261117  0.28201586  0.16782313    -0.56300
O872        O  0.40562313  0.17391184  0.25972642    -0.57500
C873        C  0.40795757  0.12978354  0.28915616     0.75100
O874        O  0.44158912  0.17382885  0.30118605    -0.58600
C875        C  0.40854201  0.18947620  0.26176229     0.75100
C876        C  0.38777048  0.17258181  0.31400218     0.77500
Cd877      Cd  0.41343157  0.16555308  0.28890140     1.37500
O878        O  0.40585149  0.13797432  0.27558554    -0.57500
O879        O  0.38445864  0.16967070  0.29864904    -0.56300
C880        C  0.44988529  0.16591440  0.29003326     0.77500
O881        O  0.40330276  0.17352461  0.31779235    -0.58700
O882        O  0.41243917  0.13815238  0.30195432    -0.57100
O883        O  0.41293903  0.19395348  0.27645435    -0.57100
O884        O  0.44129613  0.15801226  0.27919313    -0.56300
O885        O  0.26301492  0.40825930  0.17954428    -0.57500
C886        C  0.28966856  0.41464506  0.13199128     0.75100
O887        O  0.30735231  0.44155114  0.17719742    -0.58600
C888        C  0.26717438  0.40839738  0.19500044     0.75100
C889        C  0.31933976  0.39068054  0.17432703     0.77500
Cd890      Cd  0.29237859  0.41494697  0.16874224     1.37500
O891        O  0.27943282  0.40593178  0.14072465    -0.57500
O892        O  0.30489371  0.38632868  0.16905639    -0.56300
C893        C  0.29531468  0.45109908  0.17292493     0.77500
O894        O  0.32134141  0.40624137  0.17718393    -0.58700
O895        O  0.30074207  0.42263876  0.14021337    -0.57100
O896        O  0.28264099  0.41091741  0.19795258    -0.57100
O897        O  0.28227025  0.44385923  0.16725283    -0.56300
O898        O  0.14062435  0.40486606  0.27626896    -0.57500
C899        C  0.19159951  0.40614135  0.26236662     0.75100
O900        O  0.17763716  0.43680794  0.30637277    -0.58600
C901        C  0.13199124  0.40664174  0.28960127     0.75100
C902        C  0.17599127  0.38431003  0.31494673     0.77500
Cd903      Cd  0.16844890  0.41078210  0.29062900     1.37500
O904        O  0.17576951  0.40483607  0.26061851    -0.57500
O905        O  0.17222733  0.38135364  0.29970624    -0.56300
C906        C  0.17136275  0.44688241  0.29571703     0.77500
O907        O  0.17707717  0.39970194  0.31898812    -0.58700
O908        O  0.19675074  0.40892542  0.27722849    -0.57100
O909        O  0.14020385  0.41016428  0.30279901    -0.57100
O910        O  0.16407575  0.44021136  0.28322689    -0.56300
O911        O  0.28012117  0.14284024  0.41015634    -0.57500
C912        C  0.27156061  0.19656067  0.41045112     0.75100
O913        O  0.31053014  0.17841436  0.44363131    -0.58600
C914        C  0.29314859  0.13362912  0.41059775     0.75100
C915        C  0.32360101  0.17462155  0.39226327     0.77500
Cd916      Cd  0.29635910  0.16972273  0.41647576     1.37500
O917        O  0.26734592  0.18119142  0.40950382    -0.57500
O918        O  0.30859898  0.17136055  0.38779553    -0.56300
C919        C  0.30031915  0.17048644  0.45304211     0.77500
O920        O  0.32596356  0.17649405  0.40797807    -0.58700
O921        O  0.28700152  0.19931228  0.41337814    -0.57100
O922        O  0.30690241  0.14110270  0.41364549    -0.57100
O923        O  0.28875315  0.16248398  0.44554984    -0.56300
O924        O  0.18021447  0.26225621  0.41215690    -0.57500
C925        C  0.13741957  0.29140539  0.40955385     0.75100
O926        O  0.18772765  0.30363312  0.44337676    -0.58600
C927        C  0.19610523  0.26395322  0.41174468     0.75100
C928        C  0.18092531  0.31937937  0.39222822     0.77500
Cd929      Cd  0.17356301  0.29296970  0.41687936     1.37500
O930        O  0.14541311  0.27805919  0.41304614    -0.57500
O931        O  0.17792714  0.30434713  0.38782466    -0.56300
C932        C  0.17558321  0.30030924  0.45319041     0.77500
O933        O  0.18173525  0.32196410  0.40798604    -0.58700
O934        O  0.14609552  0.30476554  0.40933439    -0.57100
O935        O  0.20144566  0.27889402  0.41305770    -0.57100
O936        O  0.16267066  0.29406969  0.44624977    -0.56300
C937        C  0.25928608  0.21068697  0.40877867    -0.04900
C938        C  0.26526334  0.22735005  0.40793331    -0.04800
C939        C  0.25411537  0.24094276  0.40775123    -0.23000
C940        C  0.23665026  0.23826396  0.40852496     0.19200
C941        C  0.23035551  0.22162301  0.40904308     0.16400
C942        C  0.24169283  0.20792410  0.40905959    -0.18000
C943        C  0.21283988  0.21903902  0.40988141    -0.19900
C944        C  0.20173985  0.23274146  0.41045458    -0.12400
C945        C  0.20785999  0.24937145  0.41019348     0.04200
C946        C  0.22542315  0.25196846  0.40908475    -0.24600
H947        H  0.27867408  0.22992773  0.40765097     0.09300
H948        H  0.25919610  0.25359798  0.40728498     0.12900
H949        H  0.23684399  0.19518934  0.40977637     0.12900
H950        H  0.20771357  0.20640274  0.41029787     0.12600
H951        H  0.18833156  0.23030646  0.41134803     0.13200
H952        H  0.23040292  0.26467502  0.40888620     0.15100
C953        C  0.17848424  0.37041317  0.32729712    -0.04900
C954        C  0.17756878  0.35361094  0.32183461    -0.04800
C955        C  0.17871006  0.34031365  0.33331707    -0.23000
C956        C  0.18072675  0.34347642  0.35059307     0.19200
C957        C  0.18199899  0.36027583  0.35628548     0.16400
C958        C  0.18092059  0.37364294  0.34461559    -0.18000
C959        C  0.18396330  0.36338445  0.37359969    -0.19900
C960        C  0.18421964  0.35005480  0.38516486    -0.12400
C961        C  0.18254370  0.33329738  0.37971043     0.04200
C962        C  0.18106441  0.33013006  0.36228896    -0.24600
H963        H  0.17571109  0.35070401  0.30862349     0.09300
H964        H  0.17773987  0.32753215  0.32869201     0.12900
H965        H  0.18159485  0.38651202  0.34905826     0.12900
H966        H  0.18498698  0.37615415  0.37824698     0.12600
H967        H  0.18531633  0.35291240  0.39847032     0.13200
H968        H  0.17970813  0.31730979  0.35785105     0.15100
C969        C  0.25487317  0.40615652  0.20907419    -0.04900
C970        C  0.26082156  0.40499080  0.22575338    -0.04800
C971        C  0.24965219  0.40409547  0.23936914    -0.23000
C972        C  0.23220702  0.40441476  0.23668166     0.19200
C973        C  0.22595516  0.40517135  0.22000192     0.16400
C974        C  0.23731650  0.40599284  0.20628096    -0.18000
C975        C  0.20844990  0.40541546  0.21740711    -0.19900
C976        C  0.19731466  0.40527080  0.23115517    -0.12400
C977        C  0.20341545  0.40495577  0.24780959     0.04200
C978        C  0.22094933  0.40433004  0.25042836    -0.24600
H979        H  0.27422167  0.40500694  0.22833944     0.09300
H980        H  0.25469109  0.40342253  0.25204846     0.12900
H981        H  0.23250829  0.40690616  0.19352654     0.12900
H982        H  0.20336055  0.40595508  0.20474520     0.12600
H983        H  0.18389402  0.40578996  0.22874483     0.13200
H984        H  0.22586413  0.40402931  0.26317718     0.15100
C985        C  0.37404496  0.17405636  0.32672313    -0.04900
C986        C  0.35718598  0.17197441  0.32160872    -0.04800
C987        C  0.34407900  0.17194500  0.33337373    -0.23000
C988        C  0.34748043  0.17405381  0.35057498     0.19200
C989        C  0.36430750  0.17640063  0.35596805     0.16400
C990        C  0.37751165  0.17638065  0.34401126    -0.18000
C991        C  0.36758617  0.17852003  0.37324464    -0.19900
C992        C  0.35436865  0.17821482  0.38501184    -0.12400
C993        C  0.33759353  0.17575342  0.37976853     0.04200
C994        C  0.33430318  0.17370926  0.36245026    -0.24600
H995        H  0.35409847  0.17006352  0.30844529     0.09300
H996        H  0.33126164  0.17012234  0.32900767     0.12900
H997        H  0.39043644  0.17789315  0.34817948     0.12900
H998        H  0.38038269  0.18031776  0.37767613     0.12600
H999        H  0.35730457  0.17973096  0.39825982     0.13200
H1000       H  0.32147116  0.17171723  0.35818615     0.15100
C1001       C  0.37124430  0.32672496  0.17528683    -0.04900
C1002       C  0.35498325  0.32137246  0.17058165    -0.04800
C1003       C  0.34150669  0.33264145  0.17014984    -0.23000
C1004       C  0.34395814  0.34958930  0.17434535     0.19200
C1005       C  0.36009573  0.35510862  0.17956034     0.16400
C1006       C  0.37362664  0.34363903  0.18007909    -0.18000
C1007       C  0.36247691  0.37209875  0.18375463    -0.19900
C1008       C  0.34917345  0.38355968  0.18233379    -0.12400
C1009       C  0.33316943  0.37829399  0.17675275     0.04200
C1010       C  0.33062666  0.36115830  0.17303536    -0.24600
H1011       H  0.35270685  0.30845454  0.16689935     0.09300
H1012       H  0.32921435  0.32814643  0.16620709     0.12900
H1013       H  0.38605712  0.34797655  0.18376420     0.12900
H1014       H  0.37471181  0.37659375  0.18786380     0.12600
H1015       H  0.35149384  0.39663322  0.18538053     0.13200
H1016       H  0.31836068  0.35686098  0.16878624     0.15100
C1017       C  0.40731824  0.20176532  0.24769909    -0.04900
C1018       C  0.40493557  0.19625571  0.23101689    -0.04800
C1019       C  0.40466249  0.20775700  0.21763852    -0.23000
C1020       C  0.40668250  0.22502977  0.22067086     0.19200
C1021       C  0.40892146  0.23072364  0.23741158     0.16400
C1022       C  0.40925894  0.21909362  0.25077385    -0.18000
C1023       C  0.41091984  0.24796049  0.24050410    -0.19900
C1024       C  0.41081030  0.25945094  0.22716453    -0.12400
C1025       C  0.40871514  0.25399619  0.21040903     0.04200
C1026       C  0.40661216  0.23668539  0.20727185    -0.24600
H1027       H  0.40352093  0.18299271  0.22826735     0.09300
H1028       H  0.40295556  0.20312343  0.20490443     0.12900
H1029       H  0.41114436  0.22354312  0.26355859     0.12900
H1030       H  0.41265764  0.25256595  0.25324837     0.12600
H1031       H  0.41252270  0.27266652  0.22998545     0.13200
H1032       H  0.40507048  0.23227107  0.19443427     0.15100
C1033       C  0.11335619  0.40480797  0.29015112    -0.04900
C1034       C  0.10533329  0.40419517  0.30594703    -0.04800
C1035       C  0.08785446  0.40314850  0.30716398    -0.23000
C1036       C  0.07791479  0.40283555  0.29259996     0.19200
C1037       C  0.08564515  0.40324945  0.27655354     0.16400
C1038       C  0.10341494  0.40411344  0.27539674    -0.18000
C1039       C  0.07538131  0.40310807  0.26207403    -0.19900
C1040       C  0.05770204  0.40296191  0.26355079    -0.12400
C1041       C  0.05000595  0.40282933  0.27952720     0.04200
C1042       C  0.06031677  0.40249271  0.29395265    -0.24600
H1043       H  0.11260767  0.40460966  0.31749440     0.09300
H1044       H  0.08208907  0.40282193  0.31955367     0.12900
H1045       H  0.10943037  0.40461754  0.26313383     0.12900
H1046       H  0.08101143  0.40341118  0.24962890     0.12600
H1047       H  0.05007520  0.40327058  0.25223871     0.13200
H1048       H  0.05464127  0.40239288  0.30639393     0.15100
C1049       C  0.11895534  0.29187553  0.40615390    -0.04900
C1050       C  0.11183717  0.30682800  0.39997766    -0.04800
C1051       C  0.09444441  0.30842065  0.39808544    -0.23000
C1052       C  0.08368160  0.29513708  0.40245707     0.19200
C1053       C  0.09053331  0.27974937  0.40805433     0.16400
C1054       C  0.10820280  0.27815122  0.40977757    -0.18000
C1055       C  0.07950365  0.26653497  0.41239859    -0.19900
C1056       C  0.06194890  0.26889310  0.41207177    -0.12400
C1057       C  0.05515205  0.28449065  0.40737764     0.04200
C1058       C  0.06615597  0.29733486  0.40203213    -0.24600
H1059       H  0.11974339  0.31752774  0.39689727     0.09300
H1060       H  0.08938176  0.32025672  0.39365547     0.12900
H1061       H  0.11348808  0.26653879  0.41451644     0.12900
H1062       H  0.08445142  0.25458493  0.41661909     0.12600
H1063       H  0.05375005  0.25881223  0.41627253     0.13200
H1064       H  0.06109194  0.30939964  0.39824551     0.15100
C1065       C  0.99560564  0.33915808  0.38234136    -0.04900
C1066       C  0.99802127  0.35607973  0.38681116    -0.04800
C1067       C  0.99631808  0.36875417  0.37475653    -0.23000
C1068       C  0.99224501  0.36466843  0.35804847     0.19200
C1069       C  0.98947904  0.34769043  0.35354002     0.16400
C1070       C  0.99111212  0.33507781  0.36571115    -0.18000
C1071       C  0.98553134  0.34355115  0.33683428    -0.19900
C1072       C  0.98495427  0.35606126  0.32453925    -0.12400
C1073       C  0.98819512  0.37290880  0.32878226     0.04200
C1074       C  0.99141989  0.37719587  0.34566370    -0.24600
H1075       H  0.00143855  0.35950437  0.39957985     0.09300
H1076       H  0.99846311  0.38170515  0.37843126     0.12900
H1077       H  0.98918414  0.32205608  0.36213817     0.12900
H1078       H  0.98331525  0.33060013  0.33319571     0.12600
H1079       H  0.98240444  0.35248041  0.31161107     0.13200
H1080       H  0.99397542  0.39016029  0.34905107     0.15100
C1081       C  0.40738286  0.04803540  0.28381904    -0.04900
C1082       C  0.41000277  0.05464471  0.26760416    -0.04800
C1083       C  0.40974620  0.07211179  0.26498249    -0.23000
C1084       C  0.40686334  0.08313855  0.27855010     0.19200
C1085       C  0.40371246  0.07639855  0.29474339     0.16400
C1086       C  0.40385998  0.05902448  0.29719717    -0.18000
C1087       C  0.40102563  0.08711528  0.30845088    -0.19900
C1088       C  0.40203053  0.10443902  0.30633260    -0.12400
C1089       C  0.40549094  0.11142527  0.29043471     0.04200
C1090       C  0.40754643  0.10072673  0.27643201    -0.24600
H1091       H  0.41285610  0.04638284  0.25714340     0.09300
H1092       H  0.41221159  0.07700037  0.25246794     0.12900
H1093       H  0.40171716  0.05404960  0.30975835     0.12900
H1094       H  0.39855462  0.08209116  0.32091950     0.12600
H1095       H  0.40028138  0.11242906  0.31725170     0.13200
H1096       H  0.41033001  0.10602983  0.26414803     0.15100
C1097       C  0.28210790  0.05189146  0.40934675    -0.04900
C1098       C  0.26664546  0.05956262  0.41321807    -0.04800
C1099       C  0.26517859  0.07719553  0.41322082    -0.23000
C1100       C  0.27918791  0.08746921  0.40948916     0.19200
C1101       C  0.29458282  0.07976880  0.40505649     0.16400
C1102       C  0.29586324  0.06218829  0.40482830    -0.18000
C1103       C  0.30873215  0.08973387  0.40153366    -0.19900
C1104       C  0.30790561  0.10716699  0.40301234    -0.12400
C1105       C  0.29285879  0.11514031  0.40777704     0.04200
C1106       C  0.27833776  0.10521045  0.41063113    -0.24600
H1107       H  0.25586195  0.05196760  0.41678002     0.09300
H1108       H  0.25322817  0.08279215  0.41662224     0.12900
H1109       H  0.30788489  0.05652805  0.40174414     0.12900
H1110       H  0.32061103  0.08401281  0.39806088     0.12600
H1111       H  0.31921141  0.11446156  0.40059511     0.13200
H1112       H  0.26667631  0.11118735  0.41438393     0.15100
C1113       C  0.33084056  0.99217332  0.37921747    -0.04900
C1114       C  0.32541116  0.98748490  0.36301550    -0.04800
C1115       C  0.33673292  0.98704882  0.34958328    -0.23000
C1116       C  0.35365635  0.99138980  0.35211823     0.19200
C1117       C  0.35934213  0.99580457  0.36843076     0.16400
C1118       C  0.34790437  0.99609770  0.38190436    -0.18000
C1119       C  0.37630790  0.00011563  0.37091428    -0.19900
C1120       C  0.38749078  0.00024250  0.35731144    -0.12400
C1121       C  0.38185167  0.99612761  0.34103439     0.04200
C1122       C  0.36492617  0.99159562  0.33855080    -0.24600
H1123       H  0.31232328  0.98436350  0.36065918     0.09300
H1124       H  0.33219978  0.98356223  0.33717341     0.12900
H1125       H  0.35219852  0.99976799  0.39435168     0.12900
H1126       H  0.38089135  0.00350593  0.38332973     0.12600
H1127       H  0.40051710  0.00372654  0.35949953     0.13200
H1128       H  0.36049253  0.98827053  0.32605197     0.15100
C1129       C  0.41573838  0.28005351  0.05108246    -0.04900
C1130       C  0.40671721  0.26630937  0.05773343    -0.04800
C1131       C  0.40448426  0.26468806  0.07530190    -0.23000
C1132       C  0.41092335  0.27699288  0.08638640     0.19200
C1133       C  0.41992264  0.29075990  0.07954889     0.16400
C1134       C  0.42245851  0.29201876  0.06219869    -0.18000
C1135       C  0.42609377  0.30340354  0.09006678    -0.19900
C1136       C  0.42348481  0.30255181  0.10732431    -0.12400
C1137       C  0.41480984  0.28893406  0.11464455     0.04200
C1138       C  0.40849726  0.27604964  0.10406911    -0.24600
H1139       H  0.40133861  0.25694238  0.04939356     0.09300
H1140       H  0.39750788  0.25401087  0.08017784     0.12900
H1141       H  0.42927907  0.30280941  0.05730377     0.12900
H1142       H  0.43291834  0.31407017  0.08492985     0.12600
H1143       H  0.42851450  0.31264816  0.11499948     0.13200
H1144       H  0.40173796  0.26550131  0.10951009     0.15100
C1145       C  0.28114043  0.40964047  0.04972178    -0.04900
C1146       C  0.27045868  0.39763258  0.05722456    -0.04800
C1147       C  0.26936834  0.39635306  0.07490940    -0.23000
C1148       C  0.27902098  0.40699464  0.08535904     0.19200
C1149       C  0.28941740  0.41932240  0.07778182     0.16400
C1150       C  0.29025501  0.42065335  0.06019727    -0.18000
C1151       C  0.29925545  0.42992591  0.08785258    -0.19900
C1152       C  0.29912031  0.42820989  0.10531942    -0.12400
C1153       C  0.28902136  0.41596513  0.11325360     0.04200
C1154       C  0.27877970  0.40543693  0.10315459    -0.24600
H1155       H  0.26336471  0.38893384  0.04945465     0.09300
H1156       H  0.26127988  0.38680964  0.08039716     0.12900
H1157       H  0.29850925  0.43004436  0.05465222     0.12900
H1158       H  0.30727311  0.43944641  0.08220015     0.12600
H1159       H  0.30702580  0.43657888  0.11266465     0.13200
H1160       H  0.27092842  0.39594328  0.10906442     0.15100
C1161       C  0.33515962  0.37504804  0.00490980    -0.04900
C1162       C  0.33062216  0.35928496  0.01153354    -0.04800
C1163       C  0.34254633  0.34663440  0.01324776    -0.23000
C1164       C  0.35921250  0.34945704  0.00822678     0.19200
C1165       C  0.36412855  0.36541658  0.00204645     0.16400
C1166       C  0.35206317  0.37821344  0.00055946    -0.18000
C1167       C  0.38088075  0.36805418  0.99697336    -0.19900
C1168       C  0.39243033  0.35480701  0.99739142    -0.12400
C1169       C  0.38739622  0.33877991  0.00297355     0.04200
C1170       C  0.37086631  0.33634992  0.00876644    -0.24600
H1171       H  0.31772692  0.35661239  0.01516410     0.09300
H1172       H  0.33862561  0.33449389  0.01811097     0.12900
H1173       H  0.35568508  0.39036155  0.99548414     0.12900
H1174       H  0.38493019  0.38021562  0.99227973     0.12600
H1175       H  0.40515734  0.35698294  0.99294064     0.13200
H1176       H  0.36686812  0.32406514  0.01320589     0.15100
C1177       C  0.27402266  0.94744105  0.41964239    -0.04900
C1178       C  0.27578204  0.93867394  0.43493059    -0.04800
C1179       C  0.27454773  0.92120495  0.43549140    -0.23000
C1180       C  0.27175167  0.91202009  0.42070878     0.19200
C1181       C  0.26912757  0.92057860  0.40530415     0.16400
C1182       C  0.27009978  0.93834405  0.40487418    -0.18000
C1183       C  0.26642962  0.91111342  0.39055790    -0.19900
C1184       C  0.26712779  0.89345921  0.39098942    -0.12400
C1185       C  0.27058355  0.88497580  0.40615764     0.04200
C1186       C  0.27237949  0.89439577  0.42103384    -0.24600
H1187       H  0.27878158  0.94534890  0.44645972     0.09300
H1188       H  0.27648304  0.91483747  0.44741154     0.12900
H1189       H  0.26893421  0.94493114  0.39297140     0.12900
H1190       H  0.26433068  0.91736230  0.37860830     0.12600
H1191       H  0.26569327  0.88648944  0.37934487     0.13200
H1192       H  0.27491917  0.88801383  0.43283989     0.15100
C1193       C  0.19742952  0.74907887  0.40492088    -0.04900
C1194       C  0.19097060  0.76549910  0.40419837    -0.04800
C1195       C  0.20181820  0.77943490  0.40362193    -0.23000
C1196       C  0.21936311  0.77723879  0.40369665     0.19200
C1197       C  0.22599064  0.76077876  0.40416743     0.16400
C1198       C  0.21502244  0.74685024  0.40477036    -0.18000
C1199       C  0.24349896  0.75851617  0.40422907    -0.19900
C1200       C  0.25435721  0.77239646  0.40400419    -0.12400
C1201       C  0.24798221  0.78886951  0.40369529     0.04200
C1202       C  0.23038818  0.79118482  0.40347259    -0.24600
H1203       H  0.17749469  0.76759338  0.40432850     0.09300
H1204       H  0.19647460  0.79193938  0.40325321     0.12900
H1205       H  0.22020650  0.73427565  0.40529151     0.12900
H1206       H  0.24881433  0.74599678  0.40458527     0.12600
H1207       H  0.26781757  0.77020831  0.40424140     0.13200
H1208       H  0.22527913  0.80379649  0.40329972     0.15100
C1209       C  0.37297975  0.81967727  0.32921135    -0.04900
C1210       C  0.37789846  0.81557137  0.34572956    -0.04800
C1211       C  0.36626734  0.81602890  0.35903495    -0.23000
C1212       C  0.34944028  0.82057416  0.35611100     0.19200
C1213       C  0.34426599  0.82446170  0.33951616     0.16400
C1214       C  0.35602638  0.82399499  0.32621311    -0.18000
C1215       C  0.32745762  0.82897468  0.33654506    -0.19900
C1216       C  0.31592829  0.82980199  0.34987975    -0.12400
C1217       C  0.32091834  0.82616911  0.36651384     0.04200
C1218       C  0.33775716  0.82146025  0.36949885    -0.24600
H1219       H  0.39085611  0.81232321  0.34843995     0.09300
H1220       H  0.37049187  0.81300055  0.37165966     0.12900
H1221       H  0.35201585  0.82724168  0.31356288     0.12900
H1222       H  0.32323806  0.83197953  0.32390819     0.12600
H1223       H  0.30307479  0.83343964  0.34716302     0.13200
H1224       H  0.34180249  0.81859646  0.38222580     0.15100
C1225       C  0.40912056  0.88036161  0.29328419    -0.04900
C1226       C  0.41572382  0.88724692  0.30822367    -0.04800
C1227       C  0.41665499  0.90455585  0.31045260    -0.23000
C1228       C  0.41107684  0.91537268  0.29774818     0.19200
C1229       C  0.40421161  0.90876179  0.28270567     0.16400
C1230       C  0.40318922  0.89120620  0.28057507    -0.18000
C1231       C  0.39875471  0.91987515  0.27005396    -0.19900
C1232       C  0.40035700  0.93733052  0.27223058    -0.12400
C1233       C  0.40738401  0.94386970  0.28710836     0.04200
C1234       C  0.41252211  0.93273020  0.29984967    -0.24600
H1235       H  0.42032987  0.87922179  0.31823176     0.09300
H1236       H  0.42192646  0.90948348  0.32206117     0.12900
H1237       H  0.39808609  0.88603028  0.26900640     0.12900
H1238       H  0.39342070  0.91507280  0.25843413     0.12600
H1239       H  0.39625156  0.94567170  0.26227203     0.13200
H1240       H  0.41790120  0.93754402  0.31146401     0.15100
C1241       C  0.39826686  0.79275228  0.24630708    -0.04900
C1242       C  0.39864742  0.79906142  0.22974177    -0.04800
C1243       C  0.39783601  0.78816885  0.21589649    -0.23000
C1244       C  0.39661727  0.77074295  0.21834800     0.19200
C1245       C  0.39541614  0.76432319  0.23493225     0.16400
C1246       C  0.39619076  0.77534688  0.24877647    -0.18000
C1247       C  0.39414180  0.74691987  0.23742137    -0.19900
C1248       C  0.39492419  0.73592891  0.22370139    -0.12400
C1249       C  0.39688780  0.74210278  0.20720230     0.04200
C1250       C  0.39724453  0.75960248  0.20457381    -0.24600
H1251       H  0.40018872  0.81240096  0.22747191     0.09300
H1252       H  0.39866227  0.79334700  0.20328247     0.12900
H1253       H  0.39576171  0.77031010  0.26147251     0.12900
H1254       H  0.39306437  0.74177252  0.25002828     0.12600
H1255       H  0.39448700  0.72252907  0.22607811     0.13200
H1256       H  0.39870667  0.76454020  0.19191270     0.15100
C1257       C  0.16686871  0.52854437  0.28808434    -0.04900
C1258       C  0.16172544  0.52054072  0.27312159    -0.04800
C1259       C  0.16189741  0.50308074  0.27173497    -0.23000
C1260       C  0.16719997  0.49317186  0.28529276     0.19200
C1261       C  0.17256511  0.50092169  0.30041215     0.16400
C1262       C  0.17237177  0.51861666  0.30173556    -0.18000
C1263       C  0.17792757  0.49077797  0.31388760    -0.19900
C1264       C  0.17781089  0.47318415  0.31240451    -0.12400
C1265       C  0.17225308  0.46544437  0.29745505     0.04200
C1266       C  0.16707246  0.47560803  0.28393551    -0.24600
H1267       H  0.15748975  0.52780729  0.26239335     0.09300
H1268       H  0.15779412  0.49731885  0.26004432     0.12900
H1269       H  0.17639223  0.52460940  0.31333618     0.12900
H1270       H  0.18212060  0.49643780  0.32558978     0.12600
H1271       H  0.18185746  0.46563700  0.32300852     0.13200
H1272       H  0.16283835  0.46984136  0.27228688     0.15100
C1273       C  0.17502375  0.61960635  0.33012577    -0.04900
C1274       C  0.17863106  0.61387584  0.34650927    -0.04800
C1275       C  0.17991058  0.62516669  0.36002703    -0.23000
C1276       C  0.17756231  0.64246237  0.35748443     0.19200
C1277       C  0.17450740  0.64844871  0.34098495     0.16400
C1278       C  0.17330430  0.63702888  0.32743873    -0.18000
C1279       C  0.17217658  0.66571934  0.33839531    -0.19900
C1280       C  0.17209967  0.67685052  0.35206365    -0.12400
C1281       C  0.17444430  0.67102343  0.36865616     0.04200
C1282       C  0.17762387  0.65378428  0.37120196    -0.24600
H1283       H  0.18007681  0.60057228  0.34897093     0.09300
H1284       H  0.18235295  0.62031164  0.37255073     0.12900
H1285       H  0.17058678  0.64168399  0.31488765     0.12900
H1286       H  0.16994342  0.67058068  0.32583171     0.12600
H1287       H  0.16971856  0.69002791  0.34966177     0.13200
H1288       H  0.17947643  0.64907409  0.38388798     0.15100
C1289       C  0.28392241  0.53232937  0.16943421    -0.04900
C1290       C  0.26907552  0.52363560  0.16512115    -0.04800
C1291       C  0.26846260  0.50615433  0.16531419    -0.23000
C1292       C  0.28267284  0.49688923  0.16990105     0.19200
C1293       C  0.29768177  0.50531671  0.17456954     0.16400
C1294       C  0.29825895  0.52306711  0.17426089    -0.18000
C1295       C  0.31179297  0.49576446  0.17926926    -0.19900
C1296       C  0.31105881  0.47811307  0.17906266    -0.12400
C1297       C  0.29622139  0.46971855  0.17411545     0.04200
C1298       C  0.28205908  0.47928816  0.16969085    -0.24600
H1299       H  0.25786579  0.53036693  0.16132342     0.09300
H1300       H  0.25686078  0.49986818  0.16173605     0.12900
H1301       H  0.30979395  0.52960230  0.17761017     0.12900
H1302       H  0.32342039  0.50192743  0.18296301     0.12600
H1303       H  0.32215227  0.47103871  0.18255141     0.13200
H1304       H  0.27050483  0.47303045  0.16589137     0.15100
C1305       C  0.24271571  0.59674194  0.20002632    -0.04900
C1306       C  0.22645722  0.60155053  0.19490546    -0.04800
C1307       C  0.21301805  0.60173267  0.20642630    -0.23000
C1308       C  0.21554968  0.59710613  0.22333237     0.19200
C1309       C  0.23193582  0.59263530  0.22866238     0.16400
C1310       C  0.24535008  0.59251829  0.21705153    -0.18000
C1311       C  0.23461732  0.58800198  0.24547339    -0.19900
C1312       C  0.22120509  0.58749703  0.25686474    -0.12400
C1313       C  0.20473083  0.59161016  0.25179393     0.04200
C1314       C  0.20201027  0.59658133  0.23493592    -0.24600
H1315       H  0.22402788  0.60479468  0.18187250     0.09300
H1316       H  0.20058930  0.60523373  0.20204115     0.12900
H1317       H  0.25778155  0.58873515  0.22121771     0.12900
H1318       H  0.24708893  0.58455587  0.24979455     0.12600
H1319       H  0.22375261  0.58363189  0.26970348     0.13200
H1320       H  0.18940094  0.59974451  0.23079605     0.15100
C1321       C  0.36725324  0.67039517  0.16553845    -0.04900
C1322       C  0.35139761  0.67638060  0.16039217    -0.04800
C1323       C  0.33749601  0.66563518  0.15935106    -0.23000
C1324       C  0.33906734  0.64861817  0.16350418     0.19200
C1325       C  0.35487563  0.64235600  0.16876696     0.16400
C1326       C  0.36891216  0.65327594  0.16972162    -0.18000
C1327       C  0.35629767  0.62529520  0.17301453    -0.19900
C1328       C  0.34221478  0.61462775  0.17217814    -0.12400
C1329       C  0.32644548  0.62075869  0.16696849     0.04200
C1330       C  0.32503738  0.63780787  0.16254173    -0.24600
H1331       H  0.34969612  0.68947292  0.15709214     0.09300
H1332       H  0.32548459  0.67066735  0.15531793     0.12900
H1333       H  0.38103879  0.64847924  0.17370782     0.12900
H1334       H  0.36828248  0.62020629  0.17704562     0.12600
H1335       H  0.34368772  0.60152711  0.17555001     0.13200
H1336       H  0.31298061  0.64271981  0.15847215     0.15100
C1337       C  0.04527269  0.70625392  0.40423024    -0.04900
C1338       C  0.05139703  0.72279527  0.40567468    -0.04800
C1339       C  0.06883304  0.72603591  0.40534943    -0.23000
C1340       C  0.08039012  0.71276072  0.40372043     0.19200
C1341       C  0.07418946  0.69620501  0.40171016     0.16400
C1342       C  0.05681833  0.69313251  0.40175502    -0.18000
C1343       C  0.08542923  0.68278443  0.40033174    -0.19900
C1344       C  0.10270789  0.68558200  0.40147953    -0.12400
C1345       C  0.10919980  0.70187403  0.40382600     0.04200
C1346       C  0.09796640  0.71555398  0.40458581    -0.24600
H1347       H  0.04276992  0.73311109  0.40769241     0.09300
H1348       H  0.07328016  0.73883546  0.40689286     0.12900
H1349       H  0.05231594  0.68029676  0.40057631     0.12900
H1350       H  0.08084084  0.67002936  0.39876244     0.12600
H1351       H  0.11104228  0.67486103  0.40069628     0.13200
H1352       H  0.10282826  0.72816880  0.40643916     0.15100
C1353       C  0.99839336  0.52596512  0.28878460    -0.04900
C1354       C  0.00048607  0.51838976  0.27293212    -0.04800
C1355       C  0.00111422  0.50101531  0.27141824    -0.23000
C1356       C  0.99969513  0.49087776  0.28573885     0.19200
C1357       C  0.99786468  0.49825349  0.30184925     0.16400
C1358       C  0.99725348  0.51583862  0.30329565    -0.18000
C1359       C  0.99643360  0.48786003  0.31609947    -0.19900
C1360       C  0.99654442  0.47034543  0.31429618    -0.12400
C1361       C  0.99818838  0.46305089  0.29823978     0.04200
C1362       C  0.99988667  0.47343846  0.28407192    -0.24600
H1363       H  0.00140506  0.52590350  0.26157784     0.09300
H1364       H  0.00253953  0.49550227  0.25900539     0.12900
H1365       H  0.99565074  0.52158391  0.31558431     0.12900
H1366       H  0.99506486  0.49325632  0.32856704     0.12600
H1367       H  0.99526052  0.46252724  0.32540697     0.13200
H1368       H  0.00111044  0.46795689  0.27161474     0.15100
C1369       C  0.10936655  0.58759780  0.29035009    -0.04900
C1370       C  0.10161956  0.58419809  0.30595161    -0.04800
C1371       C  0.08415667  0.58449606  0.30763553    -0.23000
C1372       C  0.07396090  0.58803438  0.29370893     0.19200
C1373       C  0.08140287  0.59156631  0.27790683     0.16400
C1374       C  0.09914563  0.59144253  0.27632268    -0.18000
C1375       C  0.07089657  0.59483941  0.26400214    -0.19900
C1376       C  0.05326010  0.59416600  0.26569254    -0.12400
C1377       C  0.04586346  0.59036464  0.28134880     0.04200
C1378       C  0.05639969  0.58765894  0.29534300    -0.24600
H1379       H  0.10909836  0.58123439  0.31697185     0.09300
H1380       H  0.07861251  0.58173136  0.31982627     0.12900
H1381       H  0.10493494  0.59401068  0.26421040     0.12900
H1382       H  0.07631081  0.59758791  0.25176162     0.12600
H1383       H  0.04544106  0.59627427  0.25471532     0.13200
H1384       H  0.05094542  0.58472197  0.30754000     0.15100
C1385       C  0.98364154  0.61519595  0.32948948    -0.04900
C1386       C  0.97849699  0.63153060  0.32524509    -0.04800
C1387       C  0.97791644  0.64406438  0.33747603    -0.23000
C1388       C  0.98260319  0.64045866  0.35409341     0.19200
C1389       C  0.98721822  0.62391493  0.35861551     0.16400
C1390       C  0.98755974  0.61133363  0.34629403    -0.18000
C1391       C  0.99196771  0.62038269  0.37525566    -0.19900
C1392       C  0.99265880  0.63325933  0.38719066    -0.12400
C1393       C  0.98857051  0.64980269  0.38263350     0.04200
C1394       C  0.98324256  0.65325168  0.36613199    -0.24600
H1395       H  0.97530678  0.63473530  0.31236375     0.09300
H1396       H  0.97425130  0.65666223  0.33384761     0.12900
H1397       H  0.99153602  0.59875048  0.34965300     0.12900
H1398       H  0.99549103  0.60776283  0.37894093     0.12600
H1399       H  0.99673606  0.63033998  0.39988367     0.13200
H1400       H  0.97995525  0.66597071  0.36253031     0.15100
C1401       C  0.40209950  0.73018885  0.05067412    -0.04900
C1402       C  0.38709667  0.73455919  0.05898050    -0.04800
C1403       C  0.38611462  0.73395387  0.07665414    -0.23000
C1404       C  0.40003575  0.72870370  0.08624693     0.19200
C1405       C  0.41533624  0.72496132  0.07797023     0.16400
C1406       C  0.41634676  0.72607534  0.06038173    -0.18000
C1407       C  0.42917871  0.71927388  0.08729327    -0.19900
C1408       C  0.42771797  0.71664891  0.10461052    -0.12400
C1409       C  0.41252296  0.72001292  0.11301484     0.04200
C1410       C  0.39879288  0.72644592  0.10382857    -0.24600
H1411       H  0.37592529  0.73765925  0.05180879     0.09300
H1412       H  0.37426974  0.73689535  0.08275960     0.12900
H1413       H  0.42803071  0.72266642  0.05418679     0.12900
H1414       H  0.44099229  0.71635230  0.08110785     0.12600
H1415       H  0.43848192  0.71182125  0.11144293     0.13200
H1416       H  0.38698729  0.72897477  0.11020856     0.15100
C1417       C  0.30560712  0.52761305  0.99257073    -0.04900
C1418       C  0.32061626  0.51973314  0.99744338    -0.04800
C1419       C  0.32194080  0.50221127  0.99733629    -0.23000
C1420       C  0.30814147  0.49229171  0.99234665     0.19200
C1421       C  0.29306370  0.50009349  0.98716954     0.16400
C1422       C  0.29184830  0.51770050  0.98725154    -0.18000
C1423       C  0.27920295  0.49020677  0.98228899    -0.19900
C1424       C  0.28021772  0.47268975  0.98308889    -0.12400
C1425       C  0.29502503  0.46478895  0.98856971     0.04200
C1426       C  0.30912461  0.47467006  0.99287643    -0.24600
H1427       H  0.33141599  0.52715485  0.00162685     0.09300
H1428       H  0.33345378  0.49650238  0.00130569     0.12900
H1429       H  0.28035988  0.52352867  0.98350152     0.12900
H1430       H  0.26773907  0.49590060  0.97827170     0.12600
H1431       H  0.26917652  0.46529607  0.97959502     0.13200
H1432       H  0.32047370  0.46877440  0.99711981     0.15100
C1433       C  0.27508245  0.58411820  0.04478768    -0.04900
C1434       C  0.26706251  0.59871936  0.05062299    -0.04800
C1435       C  0.26437732  0.60112859  0.06798003    -0.23000
C1436       C  0.26981281  0.58901904  0.07969299     0.19200
C1437       C  0.27696033  0.57391373  0.07366721     0.16400
C1438       C  0.27930907  0.57150417  0.05637464    -0.18000
C1439       C  0.28259973  0.56176248  0.08502882    -0.19900
C1440       C  0.28209487  0.56486245  0.10225946    -0.12400
C1441       C  0.27580182  0.58010534  0.10857565     0.04200
C1442       C  0.26907242  0.59197776  0.09724761    -0.24600
H1443       H  0.26379241  0.60866064  0.04190484     0.09300
H1444       H  0.25878092  0.61276488  0.07227234     0.12900
H1445       H  0.28542818  0.56014061  0.05199644     0.12900
H1446       H  0.28799825  0.55008257  0.08057239     0.12600
H1447       H  0.28707184  0.55539027  0.11068930     0.13200
H1448       H  0.26413375  0.60374680  0.10198775     0.15100
C1449       C  0.33474368  0.62086482  0.01048865    -0.04900
C1450       C  0.32890673  0.63474161  0.01972387    -0.04800
C1451       C  0.33906348  0.64894670  0.02180759    -0.23000
C1452       C  0.35505695  0.64961598  0.01433683     0.19200
C1453       C  0.36127768  0.63544169  0.00558620     0.16400
C1454       C  0.35117799  0.62103383  0.00397037    -0.18000
C1455       C  0.37714152  0.63622757  0.99785516    -0.19900
C1456       C  0.38640533  0.65117772  0.99806576    -0.12400
C1457       C  0.37999332  0.66552982  0.00609488     0.04200
C1458       C  0.36454128  0.66450285  0.01469594    -0.24600
H1459       H  0.31629468  0.63476308  0.02496564     0.09300
H1460       H  0.33414250  0.65964944  0.02864796     0.12900
H1461       H  0.35569633  0.61039579  0.99674411     0.12900
H1462       H  0.38210741  0.62548124  0.99112065     0.12600
H1463       H  0.39830461  0.65167951  0.99138612     0.13200
H1464       H  0.35952522  0.67549556  0.02099805     0.15100
C1465       C  0.52557093  0.69269674  0.17961121    -0.04900
C1466       C  0.51772425  0.67718028  0.17618815    -0.04800
C1467       C  0.50007926  0.67589357  0.17542225    -0.23000
C1468       C  0.48995636  0.69011255  0.17804365     0.19200
C1469       C  0.49778221  0.70561593  0.18200865     0.16400
C1470       C  0.51541956  0.70677995  0.18282673    -0.18000
C1471       C  0.48789212  0.71990209  0.18458914    -0.19900
C1472       C  0.47044738  0.71904414  0.18271843    -0.12400
C1473       C  0.46240993  0.70387541  0.17830342     0.04200
C1474       C  0.47224577  0.68929033  0.17630471    -0.24600
H1475       H  0.52523883  0.66615777  0.17355516     0.09300
H1476       H  0.49437786  0.66387291  0.17238594     0.12900
H1477       H  0.52126259  0.71883779  0.18547589     0.12900
H1478       H  0.49368398  0.73186591  0.18770059     0.12600
H1479       H  0.46323877  0.73044666  0.18444586     0.13200
H1480       H  0.46623256  0.67752637  0.17286126     0.15100
C1481       C  0.62158630  0.66406774  0.17282749    -0.04900
C1482       C  0.63780522  0.66995041  0.16863466    -0.04800
C1483       C  0.65157585  0.65906450  0.16814404    -0.23000
C1484       C  0.64950918  0.64193897  0.17174181     0.19200
C1485       C  0.63339267  0.63576095  0.17623942     0.16400
C1486       C  0.61951299  0.64687925  0.17684749    -0.18000
C1487       C  0.63147643  0.61853555  0.17977354    -0.19900
C1488       C  0.64526667  0.60756507  0.17853212    -0.12400
C1489       C  0.66130453  0.61357735  0.17382971     0.04200
C1490       C  0.66329010  0.63089115  0.17064414    -0.24600
H1491       H  0.63987714  0.68306742  0.16559406     0.09300
H1492       H  0.66384855  0.66403908  0.16473647     0.12900
H1493       H  0.60712279  0.64211791  0.18013411     0.12900
H1494       H  0.61926567  0.61350103  0.18330110     0.12600
H1495       H  0.64334452  0.59433103  0.18112239     0.13200
H1496       H  0.67554131  0.63577423  0.16701466     0.15100
C1497       C  0.74097354  0.58534370  0.20861516    -0.04900
C1498       C  0.73480418  0.58359107  0.22514553    -0.04800
C1499       C  0.74571581  0.58383244  0.23895233    -0.23000
C1500       C  0.76310368  0.58582372  0.23658867     0.19200
C1501       C  0.76957375  0.58782444  0.22009289     0.16400
C1502       C  0.75846606  0.58758176  0.20617424    -0.18000
C1503       C  0.78704389  0.58979214  0.21787450    -0.19900
C1504       C  0.79795042  0.58946301  0.23180360    -0.12400
C1505       C  0.79162115  0.58721364  0.24824261     0.04200
C1506       C  0.77410408  0.58558150  0.25048502    -0.24600
H1507       H  0.72145899  0.58182249  0.22743964     0.09300
H1508       H  0.74054011  0.58228914  0.25150675     0.12900
H1509       H  0.76343676  0.58891715  0.19350781     0.12900
H1510       H  0.79229622  0.59138519  0.20535755     0.12600
H1511       H  0.81137842  0.59075389  0.22968359     0.13200
H1512       H  0.76901158  0.58381736  0.26305052     0.15100
C1513       C  0.87868573  0.58965271  0.27831283    -0.04900
C1514       C  0.88659201  0.60509563  0.28191545    -0.04800
C1515       C  0.90406648  0.60696408  0.28017243    -0.23000
C1516       C  0.91400020  0.59335332  0.27499831     0.19200
C1517       C  0.90610799  0.57791617  0.27086801     0.16400
C1518       C  0.88852865  0.57624376  0.27233792    -0.18000
C1519       C  0.91601302  0.56410609  0.26624533    -0.19900
C1520       C  0.93357927  0.56525341  0.26675004    -0.12400
C1521       C  0.94154247  0.58036203  0.27128600     0.04200
C1522       C  0.93171476  0.59456931  0.27487045    -0.24600
H1523       H  0.87931050  0.61563071  0.28650596     0.09300
H1524       H  0.90986734  0.61888275  0.28342774     0.12900
H1525       H  0.88262251  0.56424340  0.26958164     0.12900
H1526       H  0.91019293  0.55216709  0.26310085     0.12600
H1527       H  0.94099472  0.55410805  0.26431673     0.13200
H1528       H  0.93783452  0.60609913  0.27890628     0.15100
C1529       C  0.52959376  0.82061605  0.29604450    -0.04900
C1530       C  0.52210172  0.81222304  0.30977791    -0.04800
C1531       C  0.50446771  0.81085299  0.31108210    -0.23000
C1532       C  0.49395542  0.81781473  0.29865463     0.19200
C1533       C  0.50141997  0.82618377  0.28479229     0.16400
C1534       C  0.51905373  0.82752926  0.28359509    -0.18000
C1535       C  0.49114686  0.83318263  0.27231242    -0.19900
C1536       C  0.47363848  0.83205673  0.27354054    -0.12400
C1537       C  0.46587080  0.82387901  0.28725751     0.04200
C1538       C  0.47617692  0.81668310  0.29981945    -0.24600
H1539       H  0.52987711  0.80678054  0.31955824     0.09300
H1540       H  0.49905987  0.80437924  0.32183142     0.12900
H1541       H  0.52457377  0.83402047  0.27290118     0.12900
H1542       H  0.49665805  0.83963206  0.26159440     0.12600
H1543       H  0.46613653  0.83774051  0.26367995     0.13200
H1544       H  0.47041400  0.81039868  0.31050164     0.15100
C1545       C  0.59045082  0.73812307  0.21099567    -0.04900
C1546       C  0.59306831  0.73268647  0.22767700    -0.04800
C1547       C  0.59443710  0.74425530  0.24092871    -0.23000
C1548       C  0.59312613  0.76156712  0.23784395     0.19200
C1549       C  0.59101961  0.76726191  0.22109131     0.16400
C1550       C  0.58978742  0.75553749  0.20777577    -0.18000
C1551       C  0.58973111  0.78458059  0.21801363    -0.19900
C1552       C  0.59004567  0.79609361  0.23138950    -0.12400
C1553       C  0.59166211  0.79059267  0.24817452     0.04200
C1554       C  0.59344754  0.77323270  0.25125367    -0.24600
H1555       H  0.59374955  0.71940125  0.23055905     0.09300
H1556       H  0.59617036  0.73962367  0.25365727     0.12900
H1557       H  0.58780549  0.75995927  0.19500522     0.12900
H1558       H  0.58815457  0.78922215  0.20526893     0.12600
H1559       H  0.58861415  0.80933497  0.22860128     0.13200
H1560       H  0.59471613  0.76875859  0.26409957     0.15100
C1561       C  0.81768830  0.61602497  0.33482267    -0.04900
C1562       C  0.81716785  0.61033357  0.35162280    -0.04800
C1563       C  0.81697540  0.62174201  0.36515235    -0.23000
C1564       C  0.81742094  0.63916566  0.36224706     0.19200
C1565       C  0.81773456  0.64507565  0.34543831     0.16400
C1566       C  0.81774986  0.63353253  0.33188886    -0.18000
C1567       C  0.81833372  0.66245181  0.34245806    -0.19900
C1568       C  0.81879265  0.67384932  0.35591837    -0.12400
C1569       C  0.81856943  0.66824155  0.37276049     0.04200
C1570       C  0.81778830  0.65076040  0.37580594    -0.24600
H1571       H  0.81713113  0.59699502  0.35433383     0.09300
H1572       H  0.81671623  0.61690693  0.37792192     0.12900
H1573       H  0.81823086  0.63820415  0.31905668     0.12900
H1574       H  0.81860924  0.66725615  0.32967461     0.12600
H1575       H  0.81941699  0.68715621  0.35309566     0.13200
H1576       H  0.81769311  0.64617395  0.38867350     0.15100
C1577       C  0.87841816  0.71296697  0.41115241    -0.04900
C1578       C  0.88667980  0.72060332  0.39743935    -0.04800
C1579       C  0.90435953  0.72055479  0.39637713    -0.23000
C1580       C  0.91406954  0.71298014  0.40908636     0.19200
C1581       C  0.90576766  0.70574911  0.42313322     0.16400
C1582       C  0.88812497  0.70580174  0.42406376    -0.18000
C1583       C  0.91518535  0.69814742  0.43589632    -0.19900
C1584       C  0.93263941  0.69715730  0.43455889    -0.12400
C1585       C  0.94117063  0.70384005  0.42050584     0.04200
C1586       C  0.93182653  0.71208376  0.40788183    -0.24600
H1587       H  0.87945947  0.72616636  0.38730511     0.09300
H1588       H  0.91041075  0.72618362  0.38549424     0.12900
H1589       H  0.88191471  0.69996917  0.43476861     0.12900
H1590       H  0.90901857  0.69262367  0.44677669     0.12600
H1591       H  0.93949331  0.69083213  0.44450408     0.13200
H1592       H  0.93823955  0.71717041  0.39693128     0.15100
C1593       C  0.67142915  0.82959758  0.37282035    -0.04900
C1594       C  0.67612941  0.83696762  0.35735390    -0.04800
C1595       C  0.66514816  0.83696044  0.34351827    -0.23000
C1596       C  0.64909573  0.82959900  0.34473484     0.19200
C1597       C  0.64415587  0.82204159  0.36011258     0.16400
C1598       C  0.65533639  0.82204367  0.37404072    -0.18000
C1599       C  0.62803048  0.81478260  0.36131192    -0.19900
C1600       C  0.61688966  0.81516251  0.34756216    -0.12400
C1601       C  0.62158856  0.82269045  0.33218650     0.04200
C1602       C  0.63786108  0.82982332  0.33089422    -0.24600
H1603       H  0.68835088  0.84291732  0.35594844     0.09300
H1604       H  0.66919622  0.84284351  0.33186795     0.12900
H1605       H  0.65144457  0.81634004  0.38583394     0.12900
H1606       H  0.62395600  0.80891239  0.37295644     0.12600
H1607       H  0.60450248  0.80958056  0.34900223     0.13200
H1608       H  0.64171407  0.83576205  0.31920128     0.15100
C1609       C  0.78442290  0.74521164  0.40712785    -0.04900
C1610       C  0.76749264  0.74016425  0.40548788    -0.04800
C1611       C  0.75453291  0.75201123  0.40493350    -0.23000
C1612       C  0.75815551  0.76922646  0.40617771     0.19200
C1613       C  0.77510887  0.77458228  0.40756345     0.16400
C1614       C  0.78816133  0.76255351  0.40792066    -0.18000
C1615       C  0.77862719  0.79185386  0.40890866    -0.19900
C1616       C  0.76549906  0.80362166  0.40922607    -0.12400
C1617       C  0.74856375  0.79839328  0.40819735     0.04200
C1618       C  0.74505347  0.78111386  0.40644469    -0.24600
H1619       H  0.76421479  0.72695627  0.40477938     0.09300
H1620       H  0.74161984  0.74766845  0.40380975     0.12900
H1621       H  0.80113538  0.76666209  0.40924245     0.12900
H1622       H  0.79152386  0.79625328  0.40998660     0.12600
H1623       H  0.76859741  0.81681529  0.41064001     0.13200
H1624       H  0.73208413  0.77685543  0.40562444     0.15100
C1625       C  0.70851120  0.88926795  0.41968068    -0.04900
C1626       C  0.69720859  0.89590287  0.43156791    -0.04800
C1627       C  0.69549961  0.91312606  0.43367063    -0.23000
C1628       C  0.70500770  0.92425480  0.42388975     0.19200
C1629       C  0.71669304  0.91805010  0.41199273     0.16400
C1630       C  0.71849164  0.90044184  0.40998818    -0.18000
C1631       C  0.72603280  0.92965444  0.40227879    -0.19900
C1632       C  0.72350865  0.94708910  0.40419304    -0.12400
C1633       C  0.71162483  0.95314849  0.41585665     0.04200
C1634       C  0.70265588  0.94154108  0.42575965    -0.24600
H1635       H  0.68948935  0.88770842  0.43930869     0.09300
H1636       H  0.68653382  0.91774994  0.44286625     0.12900
H1637       H  0.72724702  0.89550827  0.40075722     0.12900
H1638       H  0.73508052  0.92525845  0.39306187     0.12600
H1639       H  0.73053979  0.95577001  0.39633862     0.13200
H1640       H  0.69348231  0.94595201  0.43486654     0.15100
C1641       C  0.53283212  0.99562423  0.28778129    -0.04900
C1642       C  0.52445471  0.99604757  0.27218209    -0.04800
C1643       C  0.50689563  0.99586883  0.27146665    -0.23000
C1644       C  0.49741247  0.99529131  0.28635026     0.19200
C1645       C  0.50570144  0.99453793  0.30211299     0.16400
C1646       C  0.52336095  0.99465714  0.30273012    -0.18000
C1647       C  0.49617967  0.99391597  0.31698935    -0.19900
C1648       C  0.47860988  0.99430795  0.31626487    -0.12400
C1649       C  0.47028982  0.99529846  0.30066380     0.04200
C1650       C  0.47978235  0.99564685  0.28572598    -0.24600
H1651       H  0.53148478  0.99670027  0.26049055     0.09300
H1652       H  0.50074034  0.99637105  0.25928271     0.12900
H1653       H  0.52970034  0.99423768  0.31482992     0.12900
H1654       H  0.50231341  0.99327100  0.32917549     0.12600
H1655       H  0.47153232  0.99392506  0.32794130     0.13200
H1656       H  0.47347652  0.99632075  0.27361894     0.15100
C1657       C  0.59305550  0.94518616  0.27725469    -0.04900
C1658       C  0.60032620  0.93757729  0.26298884    -0.04800
C1659       C  0.60076967  0.91987418  0.26156065    -0.23000
C1660       C  0.59384737  0.90956042  0.27432088     0.19200
C1661       C  0.58647163  0.91732963  0.28850782     0.16400
C1662       C  0.58620286  0.93480545  0.28986568    -0.18000
C1663       C  0.57932322  0.90759454  0.30131046    -0.19900
C1664       C  0.57935987  0.89020162  0.30021604    -0.12400
C1665       C  0.58666498  0.88196729  0.28636889     0.04200
C1666       C  0.59402085  0.89174455  0.27334165    -0.24600
H1667       H  0.60568807  0.94525358  0.25305166     0.09300
H1668       H  0.60647537  0.91427280  0.25050589     0.12900
H1669       H  0.58042948  0.94033539  0.30093800     0.12900
H1670       H  0.57363284  0.91345344  0.31224924     0.12600
H1671       H  0.57370883  0.88314982  0.31045868     0.13200
H1672       H  0.59967515  0.88558353  0.26255997     0.15100
C1673       C  0.62360668  0.99850127  0.32911393    -0.04900
C1674       C  0.64082776  0.99770914  0.32510981    -0.04800
C1675       C  0.65291347  0.99780544  0.33781473    -0.23000
C1676       C  0.64796554  0.99878463  0.35471904     0.19200
C1677       C  0.63068167  0.99954062  0.35894891     0.16400
C1678       C  0.61857890  0.99934519  0.34609112    -0.18000
C1679       C  0.62586082  0.00061133  0.37594237    -0.19900
C1680       C  0.63810814  0.00115182  0.38860049    -0.12400
C1681       C  0.65529168  0.00058789  0.38438942     0.04200
C1682       C  0.66009300  0.99922508  0.36742858    -0.24600
H1683       H  0.64498266  0.99700713  0.31211886     0.09300
H1684       H  0.66612967  0.99721688  0.33441207     0.12900
H1685       H  0.60531071  0.99998311  0.34928660     0.12900
H1686       H  0.61266654  0.00118714  0.37941633     0.12600
H1687       H  0.63415794  0.00219017  0.40163247     0.13200
H1688       H  0.67332598  0.99874154  0.36404360     0.15100
C1689       C  0.72139387  0.59106185  0.11446451    -0.04900
C1690       C  0.72138277  0.60772935  0.10857175    -0.04800
C1691       C  0.72374282  0.61122697  0.09141295    -0.23000
C1692       C  0.72627542  0.59811536  0.07985094     0.19200
C1693       C  0.72747170  0.58142627  0.08584474     0.16400
C1694       C  0.72500007  0.57800626  0.10307784    -0.18000
C1695       C  0.73018737  0.56832091  0.07436548    -0.19900
C1696       C  0.73025822  0.57149718  0.05702579    -0.12400
C1697       C  0.72768545  0.58784804  0.05080093     0.04200
C1698       C  0.72654082  0.60125060  0.06235859    -0.24600
H1699       H  0.71875738  0.61801434  0.11711240     0.09300
H1700       H  0.72294662  0.62412405  0.08710613     0.12900
H1701       H  0.72527701  0.56512336  0.10752332     0.12900
H1702       H  0.73137238  0.55547798  0.07874369     0.12600
H1703       H  0.73124636  0.56094375  0.04846116     0.13200
H1704       H  0.72456466  0.61392411  0.05777057     0.15100
C1705       C  0.45796586  0.71178905  0.99107005    -0.04900
C1706       C  0.46700891  0.72663632  0.98772221    -0.04800
C1707       C  0.48457990  0.72662609  0.98758543    -0.23000
C1708       C  0.49340401  0.71178040  0.99088761     0.19200
C1709       C  0.48446098  0.69669866  0.99402324     0.16400
C1710       C  0.46678492  0.69678125  0.99402284    -0.18000
C1711       C  0.49336430  0.68188874  0.99743181    -0.19900
C1712       C  0.51096818  0.68210482  0.99804286    -0.12400
C1713       C  0.51991052  0.69712282  0.99523490     0.04200
C1714       C  0.51102606  0.71187288  0.99144079    -0.24600
H1715       H  0.46049248  0.73835294  0.98545563     0.09300
H1716       H  0.49126289  0.73828619  0.98515936     0.12900
H1717       H  0.45992803  0.68527610  0.99672204     0.12900
H1718       H  0.48671713  0.67021125  0.99985986     0.12600
H1719       H  0.51756767  0.67058744  0.00099552     0.13200
H1720       H  0.51779878  0.72353378  0.98923631     0.15100
C1721       C  0.57120941  0.70948588  0.11717342    -0.04900
C1722       C  0.55738379  0.70095965  0.11002910    -0.04800
C1723       C  0.55445546  0.70144341  0.09272745    -0.23000
C1724       C  0.56539411  0.71033406  0.08211547     0.19200
C1725       C  0.57896823  0.71957813  0.08904864     0.16400
C1726       C  0.58170704  0.71926231  0.10664580    -0.18000
C1727       C  0.58990882  0.72832389  0.07813839    -0.19900
C1728       C  0.58796349  0.72708561  0.06056820    -0.12400
C1729       C  0.57495706  0.71721605  0.05368316     0.04200
C1730       C  0.56338054  0.70940380  0.06461440    -0.24600
H1731       H  0.54894700  0.69355744  0.11782579     0.09300
H1732       H  0.54392487  0.69439318  0.08758972     0.12900
H1733       H  0.59235713  0.72594795  0.11200216     0.12900
H1734       H  0.60034212  0.73557343  0.08316534     0.12600
H1735       H  0.59705237  0.73320406  0.05240483     0.13200
H1736       H  0.55320084  0.70182955  0.05949501     0.15100
C1737       C  0.61051512  0.66101931  0.00958732    -0.04900
C1738       C  0.60612629  0.64389872  0.00962255    -0.04800
C1739       C  0.61863838  0.63160231  0.01034207    -0.23000
C1740       C  0.63569712  0.63628843  0.01084861     0.19200
C1741       C  0.64012656  0.65350721  0.01136571     0.16400
C1742       C  0.62753007  0.66571318  0.01092878    -0.18000
C1743       C  0.65711615  0.65829634  0.01167606    -0.19900
C1744       C  0.66967631  0.64615238  0.01083346    -0.12400
C1745       C  0.66545927  0.62901873  0.00984424     0.04200
C1746       C  0.64841651  0.62412014  0.01024067    -0.24600
H1747       H  0.59305821  0.64001707  0.00872672     0.09300
H1748       H  0.61500428  0.61846316  0.01002857     0.12900
H1749       H  0.63105458  0.67889645  0.01099827     0.12900
H1750       H  0.66069228  0.67145056  0.01211452     0.12600
H1751       H  0.68271900  0.65021583  0.01061163     0.13200
H1752       H  0.64504182  0.61092316  0.00948768     0.15100
C1753       C  0.88747370  0.28958658  0.41901804    -0.04900
C1754       C  0.89446112  0.29821957  0.43282118    -0.04800
C1755       C  0.91170439  0.29783534  0.43594321    -0.23000
C1756       C  0.92245827  0.28902401  0.42516233     0.19200
C1757       C  0.91574845  0.28007890  0.41128689     0.16400
C1758       C  0.89817354  0.28023853  0.40837668    -0.18000
C1759       C  0.92684535  0.27158958  0.40040805    -0.19900
C1760       C  0.94437118  0.27261303  0.40286649    -0.12400
C1761       C  0.95105720  0.28197969  0.41634716     0.04200
C1762       C  0.93990416  0.28966141  0.42773302    -0.24600
H1763       H  0.88653433  0.30534726  0.44131517     0.09300
H1764       H  0.91667291  0.30474410  0.44663200     0.12900
H1765       H  0.89293069  0.27354695  0.39767962     0.12900
H1766       H  0.92201314  0.26463770  0.38969267     0.12600
H1767       H  0.95268566  0.26666270  0.39385370     0.13200
H1768       H  0.94483376  0.29691666  0.43821851     0.15100
C1769       C  0.74467369  0.21541168  0.40400459    -0.04900
C1770       C  0.73931713  0.23221171  0.40509109    -0.04800
C1771       C  0.75092123  0.24544406  0.40499519    -0.23000
C1772       C  0.76821736  0.24222009  0.40389831     0.19200
C1773       C  0.77387127  0.22546690  0.40227508     0.16400
C1774       C  0.76204402  0.21212931  0.40221110    -0.18000
C1775       C  0.79127078  0.22239529  0.40125318    -0.19900
C1776       C  0.80289018  0.23571149  0.40229120    -0.12400
C1777       C  0.79735324  0.25236799  0.40432400     0.04200
C1778       C  0.77992634  0.25549228  0.40484661    -0.24600
H1779       H  0.72606811  0.23515792  0.40640596     0.09300
H1780       H  0.74636117  0.25821076  0.40617412     0.12900
H1781       H  0.76638365  0.19925507  0.40142281     0.12900
H1782       H  0.79590931  0.20967106  0.39997170     0.12600
H1783       H  0.81623165  0.23293219  0.40183722     0.13200
H1784       H  0.77543643  0.26825086  0.40639590     0.15100
C1785       C  0.70350307  0.12127357  0.40925791    -0.04900
C1786       C  0.68706710  0.11458656  0.40958997    -0.04800
C1787       C  0.68431099  0.09730599  0.40983320    -0.23000
C1788       C  0.69793320  0.08621930  0.40984863     0.19200
C1789       C  0.71458422  0.09256168  0.40917661     0.16400
C1790       C  0.71730741  0.11014462  0.40878711    -0.18000
C1791       C  0.72809504  0.08114957  0.40927072    -0.19900
C1792       C  0.72508910  0.06374472  0.41045725    -0.12400
C1793       C  0.70852782  0.05747532  0.41153640     0.04200
C1794       C  0.69505144  0.06887665  0.41091873    -0.24600
H1795       H  0.67619863  0.12277508  0.40986145     0.09300
H1796       H  0.67147359  0.09261518  0.41029579     0.12900
H1797       H  0.73004177  0.11511677  0.40859044     0.12900
H1798       H  0.74097403  0.08568925  0.40872057     0.12600
H1799       H  0.73569713  0.05523953  0.41088846     0.13200
H1800       H  0.68218364  0.06428532  0.41164703     0.15100
C1801       C  0.81854449  0.46228793  0.29274980    -0.04900
C1802       C  0.80450649  0.46977775  0.28497389    -0.04800
C1803       C  0.80222454  0.48724030  0.28541781    -0.23000
C1804       C  0.81398939  0.49766559  0.29357500     0.19200
C1805       C  0.82793279  0.49026793  0.30177454     0.16400
C1806       C  0.83006842  0.47267287  0.30140575    -0.18000
C1807       C  0.83979627  0.50064495  0.30979562    -0.19900
C1808       C  0.83816414  0.51815904  0.30932682    -0.12400
C1809       C  0.82456353  0.52578092  0.30095025     0.04200
C1810       C  0.81232773  0.51535094  0.29328908    -0.24600
H1811       H  0.79544144  0.46214925  0.27817576     0.09300
H1812       H  0.79143421  0.49261907  0.27905835     0.12900
H1813       H  0.84100999  0.46714022  0.30737147     0.12900
H1814       H  0.85056686  0.49522773  0.31615577     0.12600
H1815       H  0.84779185  0.52578711  0.31529531     0.13200
H1816       H  0.80182971  0.52098124  0.28665457     0.15100
C1817       C  0.83061640  0.36998588  0.32223159    -0.04900
C1818       C  0.83896408  0.35479781  0.31873135    -0.04800
C1819       C  0.83985557  0.34196705  0.33075653    -0.23000
C1820       C  0.83233635  0.34391078  0.34662373     0.19200
C1821       C  0.82368493  0.35896127  0.35035729     0.16400
C1822       C  0.82293334  0.37195213  0.33817819    -0.18000
C1823       C  0.81601141  0.36072031  0.36623272    -0.19900
C1824       C  0.81709250  0.34784988  0.37829308    -0.12400
C1825       C  0.82594748  0.33295948  0.37481607     0.04200
C1826       C  0.83344793  0.33107965  0.35882828    -0.24600
H1827       H  0.84497512  0.35283866  0.30663246     0.09300
H1828       H  0.84649622  0.33050574  0.32763320     0.12900
H1829       H  0.81638884  0.38352112  0.34109710     0.12900
H1830       H  0.80924917  0.37210058  0.36937099     0.12600
H1831       H  0.81117796  0.34966395  0.39046455     0.13200
H1832       H  0.84026912  0.31966800  0.35589632     0.15100
C1833       C  0.88331534  0.41546947  0.26609693    -0.04900
C1834       C  0.89071218  0.43143117  0.26820068    -0.04800
C1835       C  0.90816167  0.43355133  0.26735530    -0.23000
C1836       C  0.91864162  0.41971127  0.26455251     0.19200
C1837       C  0.91141554  0.40378479  0.26122455     0.16400
C1838       C  0.89372765  0.40177621  0.26184308    -0.18000
C1839       C  0.92208677  0.38999139  0.25844326    -0.19900
C1840       C  0.93960714  0.39168999  0.26035324    -0.12400
C1841       C  0.94672136  0.40721481  0.26499802     0.04200
C1842       C  0.93618764  0.42134353  0.26623288    -0.24600
H1843       H  0.88302958  0.44223709  0.27124254     0.09300
H1844       H  0.91349561  0.44588799  0.26973084     0.12900
H1845       H  0.88820497  0.38941672  0.26010288     0.12900
H1846       H  0.91683695  0.37770191  0.25570122     0.12600
H1847       H  0.94744467  0.38062560  0.25933218     0.13200
H1848       H  0.94154137  0.43343024  0.26967317     0.15100
C1849       C  0.69785564  0.52486587  0.16756556    -0.04900
C1850       C  0.68210610  0.51696532  0.16536014    -0.04800
C1851       C  0.68080139  0.49934153  0.16491848    -0.23000
C1852       C  0.69524409  0.48928644  0.16654693     0.19200
C1853       C  0.71105371  0.49718320  0.16898647     0.16400
C1854       C  0.71222254  0.51478139  0.16959875    -0.18000
C1855       C  0.72558716  0.48739482  0.17043299    -0.19900
C1856       C  0.72461765  0.46995753  0.16905039    -0.12400
C1857       C  0.70908351  0.46180924  0.16637279     0.04200
C1858       C  0.69430764  0.47156372  0.16540637    -0.24600
H1859       H  0.67081896  0.52441326  0.16383153     0.09300
H1860       H  0.66853933  0.49359398  0.16305817     0.12900
H1861       H  0.72446441  0.52063756  0.17131882     0.12900
H1862       H  0.73779644  0.49325133  0.17233144     0.12600
H1863       H  0.73617498  0.46281007  0.16990783     0.13200
H1864       H  0.68226783  0.46546022  0.16322318     0.15100
C1865       C  0.79145307  0.40019516  0.24333461    -0.04900
C1866       C  0.77475464  0.39809877  0.24896077    -0.04800
C1867       C  0.76136792  0.39722957  0.23755660    -0.23000
C1868       C  0.76431205  0.39839763  0.22018404     0.19200
C1869       C  0.78102363  0.40020677  0.21421833     0.16400
C1870       C  0.79451639  0.40113661  0.22582671    -0.18000
C1871       C  0.78385081  0.40130099  0.19676647    -0.19900
C1872       C  0.77027917  0.40095331  0.18543323    -0.12400
C1873       C  0.75357496  0.39958205  0.19128470     0.04200
C1874       C  0.75075398  0.39810159  0.20873813    -0.24600
H1875       H  0.77195006  0.39739617  0.26230770     0.09300
H1876       H  0.74865448  0.39582804  0.24236743     0.12900
H1877       H  0.80729220  0.40282029  0.22126455     0.12900
H1878       H  0.79653973  0.40266320  0.19188387     0.12600
H1879       H  0.77284649  0.40219209  0.17207595     0.13200
H1880       H  0.73797048  0.39704780  0.21346501     0.15100
C1881       C  0.53191465  0.17288108  0.29691233    -0.04900
C1882       C  0.52430624  0.17981230  0.31132306    -0.04800
C1883       C  0.50670521  0.17989381  0.31303795    -0.23000
C1884       C  0.49640089  0.17293724  0.30041757     0.19200
C1885       C  0.50401063  0.16576862  0.28599823     0.16400
C1886       C  0.52160794  0.16585495  0.28431609    -0.18000
C1887       C  0.49391919  0.15859588  0.27343407    -0.19900
C1888       C  0.47643040  0.15859030  0.27502496    -0.12400
C1889       C  0.46857030  0.16585425  0.28915131     0.04200
C1890       C  0.47867251  0.17301601  0.30189017    -0.24600
H1891       H  0.53196321  0.18523825  0.32124074     0.09300
H1892       H  0.50116215  0.18539260  0.32422856     0.12900
H1893       H  0.52727893  0.16035037  0.27317668     0.12900
H1894       H  0.49955192  0.15300275  0.26232826     0.12600
H1895       H  0.46901887  0.15299435  0.26501079     0.13200
H1896       H  0.47278728  0.17859555  0.31286969     0.15100
C1897       C  0.62767448  0.17764791  0.32662217    -0.04900
C1898       C  0.64408935  0.17328786  0.32160797    -0.04800
C1899       C  0.65752221  0.17409070  0.33294573    -0.23000
C1900       C  0.65487914  0.17920544  0.34963354     0.19200
C1901       C  0.63851899  0.18378426  0.35492827     0.16400
C1902       C  0.62498841  0.18302488  0.34336897    -0.18000
C1903       C  0.63601793  0.18878273  0.37174561    -0.19900
C1904       C  0.64949959  0.18889769  0.38321994    -0.12400
C1905       C  0.66576074  0.18407984  0.37809579     0.04200
C1906       C  0.66832595  0.17947355  0.36115735    -0.24600
H1907       H  0.64657380  0.16910010  0.30885657     0.09300
H1908       H  0.66998314  0.17052406  0.32868337     0.12900
H1909       H  0.61240313  0.18635958  0.34745815     0.12900
H1910       H  0.62359107  0.19235467  0.37609408     0.12600
H1911       H  0.64712993  0.19244489  0.39618678     0.13200
H1912       H  0.68075378  0.17567790  0.35698575     0.15100
C1913       C  0.59144128  0.05224951  0.27981525    -0.04900
C1914       C  0.59972645  0.05986080  0.26611011    -0.04800
C1915       C  0.60062311  0.07748240  0.26480087    -0.23000
C1916       C  0.59325615  0.08778915  0.27718268     0.19200
C1917       C  0.58495161  0.08014907  0.29097733     0.16400
C1918       C  0.58410644  0.06259758  0.29218088    -0.18000
C1919       C  0.57759425  0.09014345  0.30345936    -0.19900
C1920       C  0.57845988  0.10759251  0.30239723    -0.12400
C1921       C  0.58665543  0.11554902  0.28881170     0.04200
C1922       C  0.59402664  0.10552654  0.27612818    -0.24600
H1923       H  0.60553875  0.05220776  0.25645220     0.09300
H1924       H  0.60709278  0.08304015  0.25412522     0.12900
H1925       H  0.57767970  0.05699475  0.30287823     0.12900
H1926       H  0.57116914  0.08445752  0.31410649     0.12600
H1927       H  0.57261124  0.11489475  0.31231348     0.13200
H1928       H  0.60039161  0.11147005  0.26559323     0.15100
C1929       C  0.53145723  0.28554568  0.16866144    -0.04900
C1930       C  0.52300118  0.27027639  0.16558002    -0.04800
C1931       C  0.50546563  0.26929823  0.16611412    -0.23000
C1932       C  0.49589323  0.28358698  0.16971387     0.19200
C1933       C  0.50409061  0.29899158  0.17326367     0.16400
C1934       C  0.52189148  0.29988132  0.17280896    -0.18000
C1935       C  0.49426415  0.31322071  0.17686988    -0.19900
C1936       C  0.47657028  0.31220544  0.17672272    -0.12400
C1937       C  0.46837206  0.29694437  0.17298675     0.04200
C1938       C  0.47822489  0.28267898  0.16958782    -0.24600
H1939       H  0.52996624  0.25901493  0.16247037     0.09300
H1940       H  0.49937387  0.25737345  0.16345262     0.12900
H1941       H  0.52822028  0.31173448  0.17522865     0.12900
H1942       H  0.50025117  0.32516472  0.17965117     0.12600
H1943       H  0.46930586  0.32338625  0.17938629     0.13200
H1944       H  0.47213940  0.27079656  0.16670176     0.15100
C1945       C  0.59653287  0.24711044  0.19886584    -0.04900
C1946       C  0.60162173  0.23081984  0.19427167    -0.04800
C1947       C  0.60204522  0.21780659  0.20620464    -0.23000
C1948       C  0.59730329  0.22075964  0.22300583     0.19200
C1949       C  0.59251501  0.23716048  0.22785685     0.16400
C1950       C  0.59225612  0.25020500  0.21583228    -0.18000
C1951       C  0.58770451  0.24017519  0.24459253    -0.19900
C1952       C  0.58743006  0.22708226  0.25636443    -0.12400
C1953       C  0.59196259  0.21062334  0.25174096     0.04200
C1954       C  0.59700133  0.20758526  0.23496220    -0.24600
H1955       H  0.60495988  0.22803531  0.18133177     0.09300
H1956       H  0.60580336  0.20535057  0.20220944     0.12900
H1957       H  0.58824435  0.26265934  0.21960462     0.12900
H1958       H  0.58397152  0.25265131  0.24855944     0.12600
H1959       H  0.58345447  0.22984722  0.26912936     0.13200
H1960       H  0.60050209  0.19498775  0.23116815     0.15100
C1961       C  0.62158720  0.32878848  0.16220937    -0.04900
C1962       C  0.61596023  0.34527884  0.16516374    -0.04800
C1963       C  0.62734392  0.35883771  0.16535757    -0.23000
C1964       C  0.64463251  0.35620798  0.16262989     0.19200
C1965       C  0.65038821  0.33970517  0.15949826     0.16400
C1966       C  0.63888596  0.32617482  0.15926202    -0.18000
C1967       C  0.66759287  0.33696380  0.15669313    -0.19900
C1968       C  0.67901977  0.35037698  0.15700041    -0.12400
C1969       C  0.67358563  0.36690280  0.16013318     0.04200
C1970       C  0.65626336  0.36972580  0.16295400    -0.24600
H1971       H  0.60271922  0.34770873  0.16734499     0.09300
H1972       H  0.62262028  0.37137930  0.16770055     0.12900
H1973       H  0.64344781  0.31357547  0.15685946     0.12900
H1974       H  0.67224067  0.32441159  0.15423924     0.12600
H1975       H  0.69220942  0.34777205  0.15470868     0.13200
H1976       H  0.65183164  0.38238598  0.16525683     0.15100
C1977       C  0.68796023  0.48017919  0.97958548    -0.04900
C1978       C  0.69929710  0.48800227  0.96847052    -0.04800
C1979       C  0.70108302  0.50540206  0.96840092    -0.23000
C1980       C  0.69184807  0.51518414  0.97975649     0.19200
C1981       C  0.67999487  0.50750291  0.99066042     0.16400
C1982       C  0.67789684  0.48999077  0.99028863    -0.18000
C1983       C  0.67111622  0.51739733  0.00228795    -0.19900
C1984       C  0.67451288  0.53461843  0.00357430    -0.12400
C1985       C  0.68673970  0.54212441  0.99317390     0.04200
C1986       C  0.69495178  0.53241547  0.98094139    -0.24600
H1987       H  0.70714072  0.48058575  0.96014743     0.09300
H1988       H  0.71019150  0.51113693  0.95996606     0.12900
H1989       H  0.66931283  0.48394458  0.99905935     0.12900
H1990       H  0.66199610  0.51173306  0.01075223     0.12600
H1991       H  0.66803541  0.54192364  0.01308496     0.13200
H1992       H  0.70433552  0.53813084  0.97278328     0.15100
C1993       C  0.70721245  0.42733084  0.04027649    -0.04900
C1994       C  0.70086584  0.44047496  0.05027129    -0.04800
C1995       C  0.70173625  0.43974490  0.06778886    -0.23000
C1996       C  0.70899338  0.42584985  0.07572228     0.19200
C1997       C  0.71603247  0.41280329  0.06590278     0.16400
C1998       C  0.71512922  0.41362833  0.04817433    -0.18000
C1999       C  0.72342439  0.39900077  0.07405110    -0.19900
C2000       C  0.72349740  0.39800071  0.09170562    -0.12400
C2001       C  0.71600709  0.41068354  0.10145894     0.04200
C2002       C  0.70896526  0.42466920  0.09334137    -0.24600
H2003       H  0.69472435  0.45118620  0.04454838     0.09300
H2004       H  0.69638233  0.44989221  0.07513999     0.12900
H2005       H  0.71997512  0.40337862  0.04061376     0.12900
H2006       H  0.72893465  0.38888624  0.06678224     0.12600
H2007       H  0.72900816  0.38710972  0.09771699     0.13200
H2008       H  0.70329277  0.43460907  0.10075517     0.15100
C2009       C  0.53583394  0.29186979  0.98311270    -0.04900
C2010       C  0.52768050  0.27647483  0.97997140    -0.04800
C2011       C  0.51018491  0.27533536  0.98029268    -0.23000
C2012       C  0.50053022  0.28955722  0.98386914     0.19200
C2013       C  0.50851734  0.30526424  0.98649759     0.16400
C2014       C  0.52617217  0.30635584  0.98598923    -0.18000
C2015       C  0.49870481  0.31944031  0.99011701    -0.19900
C2016       C  0.48120483  0.31791860  0.99165150    -0.12400
C2017       C  0.47330713  0.30221040  0.98957803     0.04200
C2018       C  0.48303737  0.28816169  0.98535353    -0.24600
H2019       H  0.53485631  0.26515576  0.97765690     0.09300
H2020       H  0.50422898  0.26323588  0.97817186     0.12900
H2021       H  0.53236280  0.31827588  0.98846561     0.12900
H2022       H  0.50458011  0.33159801  0.99210757     0.12600
H2023       H  0.47390107  0.32893975  0.99484174     0.13200
H2024       H  0.47704448  0.27601230  0.98359704     0.15100
C2025       C  0.59108181  0.27297125  0.04221095    -0.04900
C2026       C  0.60571390  0.26647837  0.04969433    -0.04800
C2027       C  0.60708709  0.26548745  0.06733002    -0.23000
C2028       C  0.59386112  0.27102441  0.07773682     0.19200
C2029       C  0.57880194  0.27675308  0.07020165     0.16400
C2030       C  0.57745565  0.27748687  0.05259570    -0.18000
C2031       C  0.56557635  0.28245675  0.08036050    -0.19900
C2032       C  0.56746408  0.28319574  0.09781945    -0.12400
C2033       C  0.58250786  0.27802301  0.10556929     0.04200
C2034       C  0.59558024  0.27153682  0.09545795    -0.24600
H2035       H  0.61640338  0.26300526  0.04196809     0.09300
H2036       H  0.61872191  0.26098988  0.07282486     0.12900
H2037       H  0.56604303  0.28243362  0.04697985     0.12900
H2038       H  0.55392086  0.28680939  0.07477057     0.12600
H2039       H  0.55713854  0.28804302  0.10529452     0.13200
H2040       H  0.60724383  0.26753089  0.10128371     0.15100
C2041       C  0.62047761  0.33529315  0.99936212    -0.04900
C2042       C  0.63660849  0.33309182  0.00629657    -0.04800
C2043       C  0.64783852  0.34653761  0.00739349    -0.23000
C2044       C  0.64320931  0.36239991  0.00139600     0.19200
C2045       C  0.62685254  0.36497621  0.99487460     0.16400
C2046       C  0.61548734  0.35140161  0.99404597    -0.18000
C2047       C  0.62243540  0.38092088  0.98872966    -0.19900
C2048       C  0.63438766  0.39393175  0.98834003    -0.12400
C2049       C  0.65084849  0.39119057  0.99422667     0.04200
C2050       C  0.65496555  0.37552122  0.00121013    -0.24600
H2051       H  0.64071225  0.32084337  0.01057205     0.09300
H2052       H  0.66032048  0.34440792  0.01247968     0.12900
H2053       H  0.60307451  0.35322562  0.98867216     0.12900
H2054       H  0.60993201  0.38317425  0.98376472     0.12600
H2055       H  0.63090548  0.40595603  0.98300274     0.13200
H2056       H  0.66757873  0.37327922  0.00592722     0.15100
C2057       C  0.16222140  0.70375703  0.53002911    -0.04900
C2058       C  0.15264148  0.71659514  0.52251355    -0.04800
C2059       C  0.15146612  0.71809433  0.50503717    -0.23000
C2060       C  0.15983150  0.70677656  0.49448846     0.19200
C2061       C  0.16947460  0.69368917  0.50166300     0.16400
C2062       C  0.17066740  0.69224892  0.51944789    -0.18000
C2063       C  0.17774951  0.68239305  0.49085252    -0.19900
C2064       C  0.17660442  0.68417650  0.47324305    -0.12400
C2065       C  0.16718790  0.69729767  0.46604515     0.04200
C2066       C  0.15874253  0.70847647  0.47686361    -0.24600
H2067       H  0.14601973  0.72568275  0.53019495     0.09300
H2068       H  0.14401721  0.72819820  0.49976568     0.12900
H2069       H  0.17812079  0.68229400  0.52498895     0.12900
H2070       H  0.18517764  0.67222224  0.49600643     0.12600
H2071       H  0.18319780  0.67534276  0.46524894     0.13200
H2072       H  0.15137145  0.71863612  0.47157332     0.15100
C2073       C  0.17938535  0.66962116  0.62522770    -0.04900
C2074       C  0.18232586  0.67572561  0.64163468    -0.04800
C2075       C  0.18372728  0.66471567  0.65532756    -0.23000
C2076       C  0.18206071  0.64732344  0.65296559     0.19200
C2077       C  0.17999989  0.64093838  0.63644786     0.16400
C2078       C  0.17884854  0.65210189  0.62266293    -0.18000
C2079       C  0.17834386  0.62353092  0.63410416    -0.19900
C2080       C  0.17790906  0.61265431  0.64798692    -0.12400
C2081       C  0.17918145  0.61890801  0.66453009     0.04200
C2082       C  0.18170536  0.63629119  0.66687962    -0.24600
H2083       H  0.18298760  0.68911831  0.64399799     0.09300
H2084       H  0.18550239  0.66986095  0.66785641     0.12900
H2085       H  0.17665111  0.64718110  0.61010822     0.12900
H2086       H  0.17685745  0.61835760  0.62155348     0.12600
H2087       H  0.17603330  0.59934692  0.64577109     0.13200
H2088       H  0.18279659  0.64131280  0.67954166     0.15100
C2089       C  0.25772660  0.59385533  0.78545709    -0.04900
C2090       C  0.26310710  0.59471412  0.76858243    -0.04800
C2091       C  0.25143666  0.59517971  0.75540468    -0.23000
C2092       C  0.23410790  0.59463046  0.75880750     0.19200
C2093       C  0.22848098  0.59403078  0.77571858     0.16400
C2094       C  0.24032116  0.59374465  0.78895265    -0.18000
C2095       C  0.21111396  0.59340505  0.77905391    -0.19900
C2096       C  0.19946922  0.59306608  0.76578582    -0.12400
C2097       C  0.20494980  0.59329853  0.74892566     0.04200
C2098       C  0.22234322  0.59429431  0.74555987    -0.24600
H2099       H  0.27641485  0.59487769  0.76553649     0.09300
H2100       H  0.25598296  0.59569772  0.74252639     0.12900
H2101       H  0.23600144  0.59299951  0.80190254     0.12900
H2102       H  0.20653743  0.59292487  0.79192065     0.12600
H2103       H  0.18616282  0.59222030  0.76872630     0.13200
H2104       H  0.22675763  0.59449370  0.73261974     0.15100
C2105       C  0.28588035  0.59221830  0.87954823    -0.04900
C2106       C  0.27049324  0.58748888  0.88702514    -0.04800
C2107       C  0.26882681  0.58701796  0.90465489    -0.23000
C2108       C  0.28249997  0.59135153  0.91507246     0.19200
C2109       C  0.29777831  0.59667772  0.90754070     0.16400
C2110       C  0.29934061  0.59708358  0.88995251    -0.18000
C2111       C  0.31150940  0.60106416  0.91768183    -0.19900
C2112       C  0.31042753  0.59955619  0.93512966    -0.12400
C2113       C  0.29557205  0.59371624  0.94289112     0.04200
C2114       C  0.28143118  0.58999167  0.93279869    -0.24600
H2115       H  0.25993560  0.58365782  0.87925713     0.09300
H2116       H  0.25697941  0.58293979  0.91012357     0.12900
H2117       H  0.31123642  0.60086586  0.88434757     0.12900
H2118       H  0.32326301  0.60526940  0.91209629     0.12600
H2119       H  0.32146140  0.60262735  0.94257476     0.13200
H2120       H  0.26994224  0.58540430  0.93862923     0.15100
C2121       C  0.28791807  0.81993923  0.52513603    -0.04900
C2122       C  0.27351318  0.81294469  0.51751396    -0.04800
C2123       C  0.27217670  0.81178512  0.50001963    -0.23000
C2124       C  0.28512635  0.81783716  0.48965134     0.19200
C2125       C  0.30000375  0.82437649  0.49700497     0.16400
C2126       C  0.30142116  0.82521397  0.51478552    -0.18000
C2127       C  0.31284166  0.83050185  0.48638384    -0.19900
C2128       C  0.31065482  0.83072407  0.46878696    -0.12400
C2129       C  0.29560991  0.82480046  0.46147189     0.04200
C2130       C  0.28308842  0.81800319  0.47205533    -0.24600
H2131       H  0.26302177  0.80863494  0.52514287     0.09300
H2132       H  0.26074515  0.80661833  0.49458871     0.12900
H2133       H  0.31257902  0.83067977  0.52048702     0.12900
H2134       H  0.32438601  0.83552461  0.49169749     0.12600
H2135       H  0.32052297  0.83599597  0.46094275     0.13200
H2136       H  0.27146358  0.81326548  0.46662647     0.15100
C2137       C  0.24882958  0.78787257  0.58856922    -0.04900
C2138       C  0.25501066  0.77134114  0.58903351    -0.04800
C2139       C  0.24401570  0.75762380  0.58999583    -0.23000
C2140       C  0.22655676  0.76010826  0.59047040     0.19200
C2141       C  0.22009789  0.77664236  0.59026846     0.16400
C2142       C  0.23127464  0.79044398  0.58932583    -0.18000
C2143       C  0.20257533  0.77901729  0.59079306    -0.19900
C2144       C  0.19160356  0.76516523  0.59126187    -0.12400
C2145       C  0.19792950  0.74867873  0.59108415     0.04200
C2146       C  0.21547585  0.74628966  0.59085776    -0.24600
H2147       H  0.26842800  0.76896613  0.58846398     0.09300
H2148       H  0.24918426  0.74503996  0.59017744     0.12900
H2149       H  0.22631286  0.80310931  0.58889481     0.12900
H2150       H  0.19734822  0.79157578  0.59065225     0.12600
H2151       H  0.17814097  0.76735362  0.59135273     0.13200
H2152       H  0.22053032  0.73365096  0.59075913     0.15100
C2153       C  0.32245239  0.82691445  0.62059418    -0.04900
C2154       C  0.31758158  0.83170035  0.63697340    -0.04800
C2155       C  0.32930707  0.83233678  0.65014373    -0.23000
C2156       C  0.34622310  0.82814882  0.64729777     0.19200
C2157       C  0.35132141  0.82314307  0.63097547     0.16400
C2158       C  0.33942937  0.82256869  0.61772461    -0.18000
C2159       C  0.36826633  0.81892837  0.62819371    -0.19900
C2160       C  0.38004117  0.81980997  0.64136173    -0.12400
C2161       C  0.37516702  0.82491178  0.65763336     0.04200
C2162       C  0.35812486  0.82899255  0.66047868    -0.24600
H2163       H  0.30465681  0.83515447  0.63960595     0.09300
H2164       H  0.32513998  0.83620244  0.66256189     0.12900
H2165       H  0.34341229  0.81886074  0.60519614     0.12900
H2166       H  0.37244992  0.81502859  0.61579445     0.12600
H2167       H  0.39302904  0.81657360  0.63876999     0.13200
H2168       H  0.35412380  0.83295887  0.67292425     0.15100
C2169       C  0.36983743  0.68014733  0.82324724    -0.04900
C2170       C  0.35278329  0.68472230  0.82469695    -0.04800
C2171       C  0.33997829  0.67262448  0.82398924    -0.23000
C2172       C  0.34388688  0.65561081  0.82176588     0.19200
C2173       C  0.36092242  0.65080642  0.81984901     0.16400
C2174       C  0.37381071  0.66309370  0.82060187    -0.18000
C2175       C  0.36474483  0.63374777  0.81755219    -0.19900
C2176       C  0.35191071  0.62157315  0.81760460    -0.12400
C2177       C  0.33495484  0.62615749  0.81992423     0.04200
C2178       C  0.33105214  0.64331337  0.82176231    -0.24600
H2179       H  0.34929830  0.69771081  0.82673476     0.09300
H2180       H  0.32700308  0.67657110  0.82543131     0.12900
H2181       H  0.38687843  0.65935629  0.81941452     0.12900
H2182       H  0.37769507  0.62977707  0.81597316     0.12600
H2183       H  0.35530980  0.60849142  0.81610607     0.13200
H2184       H  0.31805824  0.64708805  0.82352418     0.15100
C2185       C  0.40084159  0.75703907  0.79136550    -0.04900
C2186       C  0.39607799  0.77355484  0.79544072    -0.04800
C2187       C  0.39538798  0.78601712  0.78300057    -0.23000
C2188       C  0.39939236  0.78220280  0.76620234     0.19200
C2189       C  0.40377263  0.76553515  0.76188918     0.16400
C2190       C  0.40448354  0.75308927  0.77446441    -0.18000
C2191       C  0.40769248  0.76165631  0.74511047    -0.19900
C2192       C  0.40771924  0.77422027  0.73279535    -0.12400
C2193       C  0.40383975  0.79095374  0.73695892     0.04200
C2194       C  0.39943979  0.79481055  0.75372000    -0.24600
H2195       H  0.39319636  0.77694107  0.80834748     0.09300
H2196       H  0.39194615  0.79869284  0.78656813     0.12900
H2197       H  0.40811767  0.74039726  0.77112385     0.12900
H2198       H  0.41101817  0.74894570  0.74154777     0.12600
H2199       H  0.41116577  0.77086949  0.72001940     0.13200
H2200       H  0.39644146  0.80764856  0.75712947     0.15100
C2201       C  0.39659367  0.73206829  0.88444452    -0.04900
C2202       C  0.40533522  0.74535766  0.89223927    -0.04800
C2203       C  0.40446342  0.74766574  0.90972635    -0.23000
C2204       C  0.39469950  0.73680791  0.91973147     0.19200
C2205       C  0.38493976  0.72413275  0.91184941     0.16400
C2206       C  0.38597615  0.72181474  0.89428579    -0.18000
C2207       C  0.37502061  0.71339480  0.92177378    -0.19900
C2208       C  0.37584278  0.71425819  0.93935789    -0.12400
C2209       C  0.38651094  0.72593829  0.94741514     0.04200
C2210       C  0.39532052  0.73773288  0.93748373    -0.24600
H2211       H  0.41352464  0.75347570  0.88491129     0.09300
H2212       H  0.41192024  0.75755346  0.91548378     0.12900
H2213       H  0.37900575  0.71165802  0.88836480     0.12900
H2214       H  0.36726370  0.70376555  0.91596185     0.12600
H2215       H  0.36881313  0.70510485  0.94666222     0.13200
H2216       H  0.40361101  0.74678364  0.94349453     0.15100
C2217       C  0.05178039  0.59204790  0.72349253    -0.04900
C2218       C  0.05968293  0.58551584  0.73791895    -0.04800
C2219       C  0.07733810  0.58538610  0.73920985    -0.23000
C2220       C  0.08741363  0.59181337  0.72609743     0.19200
C2221       C  0.07951530  0.59916757  0.71194824     0.16400
C2222       C  0.06184522  0.59929261  0.71077586    -0.18000
C2223       C  0.08940283  0.60564937  0.69881637    -0.19900
C2224       C  0.10692247  0.60420607  0.69928072    -0.12400
C2225       C  0.11502016  0.59629423  0.71289267     0.04200
C2226       C  0.10516549  0.59047425  0.72653431    -0.24600
H2227       H  0.05224999  0.57974908  0.74782491     0.09300
H2228       H  0.08310917  0.57975076  0.75020845     0.12900
H2229       H  0.05593899  0.60439869  0.69957209     0.12900
H2230       H  0.08355767  0.61142801  0.68792658     0.12600
H2231       H  0.11413389  0.60892252  0.68867589     0.13200
H2232       H  0.11121253  0.58435943  0.73712463     0.15100
C2233       C  0.00200171  0.68316673  0.53415573    -0.04900
C2234       C  0.99666346  0.66788451  0.52700730    -0.04800
C2235       C  0.99659822  0.66574369  0.50949471    -0.23000
C2236       C  0.00170124  0.67892570  0.49887945     0.19200
C2237       C  0.00752781  0.69415506  0.50603506     0.16400
C2238       C  0.00780977  0.69609540  0.52356562    -0.18000
C2239       C  0.01239946  0.70746934  0.49555426    -0.19900
C2240       C  0.01090114  0.70598329  0.47812500    -0.12400
C2241       C  0.00469319  0.69110167  0.47085088     0.04200
C2242       C  0.00050556  0.67741312  0.48127441    -0.24600
H2243       H  0.99214758  0.65773588  0.53493368     0.09300
H2244       H  0.99211876  0.65396899  0.50425391     0.12900
H2245       H  0.01194028  0.70795422  0.52892376     0.12900
H2246       H  0.01693138  0.71920171  0.50084974     0.12600
H2247       H  0.01431727  0.71664762  0.47032961     0.13200
H2248       H  0.99565861  0.66589991  0.47576007     0.15100
C2249       C  0.04614875  0.71095792  0.59891945    -0.04900
C2250       C  0.05267037  0.72613343  0.59252619    -0.04800
C2251       C  0.07015197  0.72882747  0.59162276    -0.23000
C2252       C  0.08142640  0.71631822  0.59694763     0.19200
C2253       C  0.07493387  0.70137886  0.60414417     0.16400
C2254       C  0.05743065  0.69892896  0.60531584    -0.18000
C2255       C  0.08601611  0.68867946  0.60920953    -0.19900
C2256       C  0.10331161  0.69034108  0.60639503    -0.12400
C2257       C  0.10997669  0.70487970  0.59881538     0.04200
C2258       C  0.09898503  0.71809800  0.59454509    -0.24600
H2259       H  0.04428911  0.73557506  0.58745669     0.09300
H2260       H  0.07484279  0.74039697  0.58611057     0.12900
H2261       H  0.05261392  0.68716798  0.61031857     0.12900
H2262       H  0.08125359  0.67718119  0.61481821     0.12600
H2263       H  0.11150912  0.68008409  0.60995717     0.13200
H2264       H  0.10397982  0.72934960  0.58863300     0.15100
C2265       C  0.98607263  0.65196991  0.62065231    -0.04900
C2266       C  0.98854113  0.63536300  0.61517144    -0.04800
C2267       C  0.98885169  0.62213342  0.62677558    -0.23000
C2268       C  0.98684307  0.62534331  0.64404802     0.19200
C2269       C  0.98359451  0.64192140  0.64954973     0.16400
C2270       C  0.98304953  0.65506440  0.63782130    -0.18000
C2271       C  0.98165978  0.64522726  0.66677729    -0.19900
C2272       C  0.98364301  0.63236794  0.67853824    -0.12400
C2273       C  0.98750557  0.61595279  0.67328961     0.04200
C2274       C  0.98867493  0.61241974  0.65596027    -0.24600
H2275       H  0.99078203  0.63266295  0.60197696     0.09300
H2276       H  0.99122356  0.60949335  0.62230443     0.12900
H2277       H  0.98105115  0.66781488  0.64219261     0.12900
H2278       H  0.97909123  0.65785053  0.67119292     0.12600
H2279       H  0.98256694  0.63539265  0.69180969     0.13200
H2280       H  0.99158527  0.59978927  0.65177495     0.15100
C2281       C  0.41138801  0.94745937  0.71730100    -0.04900
C2282       C  0.39732372  0.93995903  0.72509173    -0.04800
C2283       C  0.39534572  0.92236736  0.72510052    -0.23000
C2284       C  0.40733210  0.91200890  0.71719339     0.19200
C2285       C  0.42177711  0.91951197  0.70991470     0.16400
C2286       C  0.42378446  0.93701706  0.71021252    -0.18000
C2287       C  0.43374756  0.90948634  0.70180404    -0.19900
C2288       C  0.43122052  0.89221354  0.70034856    -0.12400
C2289       C  0.41679482  0.88446304  0.70716369     0.04200
C2290       C  0.40498879  0.89441264  0.71593971    -0.24600
H2291       H  0.38753851  0.94769700  0.73054240     0.09300
H2292       H  0.38418346  0.91691260  0.73080228     0.12900
H2293       H  0.43474645  0.94256936  0.70418784     0.12900
H2294       H  0.44491977  0.91506190  0.69622202     0.12600
H2295       H  0.44061417  0.88487885  0.69374596     0.13200
H2296       H  0.39382314  0.88859091  0.72127280     0.15100
C2297       C  0.29411153  0.00848778  0.53525770    -0.04900
C2298       C  0.28088396  0.01720100  0.52742418    -0.04800
C2299       C  0.28033229  0.01884319  0.50994182    -0.23000
C2300       C  0.29291591  0.01163616  0.49994390     0.19200
C2301       C  0.30674695  0.00354851  0.50766368     0.16400
C2302       C  0.30739315  0.00223315  0.52534674    -0.18000
C2303       C  0.31923918  0.99626402  0.49750769    -0.19900
C2304       C  0.31766762  0.99641275  0.47991655    -0.12400
C2305       C  0.30362443  0.00390822  0.47222486     0.04200
C2306       C  0.29149719  0.01182408  0.48234744    -0.24600
H2307       H  0.27063703  0.02233203  0.53481358     0.09300
H2308       H  0.26973537  0.02522050  0.50421702     0.12900
H2309       H  0.31767420  0.99553671  0.53128343     0.12900
H2310       H  0.32995697  0.99004007  0.50316812     0.12600
H2311       H  0.32717708  0.99023264  0.47235954     0.13200
H2312       H  0.28064802  0.01772016  0.47655602     0.15100
C2313       C  0.26814789  0.94582074  0.58621597    -0.04900
C2314       C  0.25945305  0.93809061  0.59961009    -0.04800
C2315       C  0.25785857  0.92047793  0.60025684    -0.23000
C2316       C  0.26517359  0.91039257  0.58765233     0.19200
C2317       C  0.27307661  0.91829023  0.57375414     0.16400
C2318       C  0.27416913  0.93580189  0.57297948    -0.18000
C2319       C  0.28075979  0.90860837  0.56124973    -0.19900
C2320       C  0.28150822  0.89124321  0.56287969    -0.12400
C2321       C  0.27429888  0.88309107  0.57685128     0.04200
C2322       C  0.26557385  0.89267531  0.58900027    -0.24600
H2323       H  0.25469371  0.94555697  0.60997513     0.09300
H2324       H  0.25164236  0.91474013  0.61098938     0.12900
H2325       H  0.28076473  0.94159657  0.56248488     0.12900
H2326       H  0.28680586  0.91451776  0.55050520     0.12600
H2327       H  0.28807257  0.88415295  0.55325930     0.13200
H2328       H  0.25998064  0.88649800  0.59983662     0.15100
C2329       C  0.32813378  0.98578665  0.62492202    -0.04900
C2330       C  0.32376159  0.98004288  0.64111580    -0.04800
C2331       C  0.33583351  0.97932788  0.65388968    -0.23000
C2332       C  0.35242046  0.98455033  0.65071616     0.19200
C2333       C  0.35714879  0.98948605  0.63424687     0.16400
C2334       C  0.34501420  0.98987659  0.62140238    -0.18000
C2335       C  0.37374319  0.99473153  0.63109620    -0.19900
C2336       C  0.38531125  0.99593824  0.64431602    -0.12400
C2337       C  0.38047393  0.99186061  0.66086256     0.04200
C2338       C  0.36413888  0.98566127  0.66388425    -0.24600
H2339       H  0.31086941  0.97660625  0.64406263     0.09300
H2340       H  0.33204476  0.97532157  0.66639711     0.12900
H2341       H  0.34853631  0.99422184  0.60892682     0.12900
H2342       H  0.37761797  0.99843123  0.61852372     0.12600
H2343       H  0.39788944  0.00057551  0.64167140     0.13200
H2344       H  0.36035003  0.98225916  0.67657761     0.15100
C2345       C  0.29620148  0.46954618  0.83088489    -0.04900
C2346       C  0.28628526  0.47752327  0.84318087    -0.04800
C2347       C  0.28593383  0.49497927  0.84443766    -0.23000
C2348       C  0.29542611  0.50490465  0.83335679     0.19200
C2349       C  0.30564433  0.49716934  0.82100943     0.16400
C2350       C  0.30603052  0.47947038  0.81986980    -0.18000
C2351       C  0.31507577  0.50733374  0.80995585    -0.19900
C2352       C  0.31413857  0.52492776  0.81097909    -0.12400
C2353       C  0.30376287  0.53265015  0.82307178     0.04200
C2354       C  0.29460198  0.52247111  0.83432653    -0.24600
H2355       H  0.27867398  0.47023666  0.85187822     0.09300
H2356       H  0.27807884  0.50072654  0.85400009     0.12900
H2357       H  0.31372599  0.47347813  0.81032655     0.12900
H2358       H  0.32301507  0.50168927  0.80040595     0.12600
H2359       H  0.32131355  0.53248282  0.80214777     0.13200
H2360       H  0.28657936  0.52822175  0.84375612     0.15100
C2361       C  0.29077875  0.40153557  0.88189379    -0.04900
C2362       C  0.30613715  0.39642322  0.88898136    -0.04800
C2363       C  0.30746931  0.39321369  0.90616234    -0.23000
C2364       C  0.29352829  0.39540300  0.91671573     0.19200
C2365       C  0.27778462  0.39999566  0.90978652     0.16400
C2366       C  0.27641753  0.40282041  0.89226153    -0.18000
C2367       C  0.26400367  0.40242252  0.92066596    -0.19900
C2368       C  0.26613238  0.40141737  0.93822462    -0.12400
C2369       C  0.28202711  0.39782867  0.94512040     0.04200
C2370       C  0.29543508  0.39406122  0.93420246    -0.24600
H2371       H  0.31728751  0.39513021  0.88120220     0.09300
H2372       H  0.31959188  0.38961941  0.91128648     0.12900
H2373       H  0.26453124  0.40680776  0.88688194     0.12900
H2374       H  0.25179790  0.40586493  0.91565075     0.12600
H2375       H  0.25562036  0.40440065  0.94638827     0.13200
H2376       H  0.30774403  0.39114825  0.93935755     0.15100
C2377       C  0.17073348  0.53029974  0.69955860    -0.04900
C2378       C  0.18480528  0.52213748  0.69258564    -0.04800
C2379       C  0.18551931  0.50451973  0.69198431    -0.23000
C2380       C  0.17223639  0.49473583  0.69848842     0.19200
C2381       C  0.15789581  0.50288021  0.70514173     0.16400
C2382       C  0.15719974  0.52050548  0.70553224    -0.18000
C2383       C  0.14461458  0.49328941  0.71174406    -0.19900
C2384       C  0.14569238  0.47580173  0.71227002    -0.12400
C2385       C  0.16003264  0.46744892  0.70613744     0.04200
C2386       C  0.17319039  0.47702238  0.69892933    -0.24600
H2387       H  0.19538194  0.52937243  0.68784114     0.09300
H2388       H  0.19660575  0.49855698  0.68675565     0.12900
H2389       H  0.14625302  0.52659189  0.71093175     0.12900
H2390       H  0.13351021  0.49933403  0.71684566     0.12600
H2391       H  0.13535339  0.46880785  0.71783405     0.13200
H2392       H  0.18431613  0.47076531  0.69414061     0.15100
C2393       C  0.25542902  0.40900575  0.78930574    -0.04900
C2394       C  0.25968776  0.41415912  0.77288108    -0.04800
C2395       C  0.24761845  0.41435326  0.76010637    -0.23000
C2396       C  0.23101037  0.40938456  0.76347176     0.19200
C2397       C  0.22656262  0.40387475  0.77983966     0.16400
C2398       C  0.23881252  0.40370266  0.79267921    -0.18000
C2399       C  0.20988104  0.39890812  0.78309472    -0.19900
C2400       C  0.19769635  0.39970296  0.77035043    -0.12400
C2401       C  0.20197312  0.40546998  0.75413050     0.04200
C2402       C  0.21874213  0.41011425  0.75076726    -0.24600
H2403       H  0.27236129  0.41832548  0.76992591     0.09300
H2404       H  0.25124170  0.41859127  0.74762854     0.12900
H2405       H  0.23535716  0.39972281  0.80529354     0.12900
H2406       H  0.20621086  0.39461026  0.79553672     0.12600
H2407       H  0.18485816  0.39604694  0.77326381     0.13200
H2408       H  0.22221858  0.41457315  0.73831758     0.15100
C2409       C  0.33466978  0.37893445  0.82079749    -0.04900
C2410       C  0.35154755  0.38417562  0.82239149    -0.04800
C2411       C  0.36463301  0.37240110  0.82287342    -0.23000
C2412       C  0.36110913  0.35512719  0.82175569     0.19200
C2413       C  0.34422314  0.34976814  0.81968103     0.16400
C2414       C  0.33116247  0.36165714  0.81918958    -0.18000
C2415       C  0.34060972  0.33255930  0.81851854    -0.19900
C2416       C  0.35351101  0.32072751  0.81974491    -0.12400
C2417       C  0.37034902  0.32578612  0.82216749     0.04200
C2418       C  0.37408411  0.34310818  0.82300124    -0.24600
H2419       H  0.35461609  0.39738596  0.82370879     0.09300
H2420       H  0.37748166  0.37679851  0.82441830     0.12900
H2421       H  0.31822071  0.35740632  0.81796497     0.12900
H2422       H  0.32774858  0.32821650  0.81690066     0.12600
H2423       H  0.35022022  0.30752056  0.81908879     0.13200
H2424       H  0.38698361  0.34721760  0.82491461     0.15100
C2425       C  0.39655712  0.28192536  0.88621337    -0.04900
C2426       C  0.38779420  0.29518468  0.89390112    -0.04800
C2427       C  0.38707502  0.29655604  0.91138172    -0.23000
C2428       C  0.39526658  0.28478424  0.92155523     0.19200
C2429       C  0.40347162  0.27089576  0.91412545     0.16400
C2430       C  0.40389819  0.26942158  0.89640895    -0.18000
C2431       C  0.41181699  0.25930670  0.92456007    -0.19900
C2432       C  0.41285324  0.26205822  0.94202209    -0.12400
C2433       C  0.40546634  0.27637084  0.94925668     0.04200
C2434       C  0.39614705  0.28728326  0.93898317    -0.24600
H2435       H  0.38194303  0.30489123  0.88635415     0.09300
H2436       H  0.38067826  0.30722397  0.91692572     0.12900
H2437       H  0.41075622  0.25918367  0.89060694     0.12900
H2438       H  0.41814041  0.24853592  0.91914813     0.12600
H2439       H  0.42016201  0.25351157  0.94969901     0.13200
H2440       H  0.39031813  0.29832741  0.94443957     0.15100
C2441       C  0.40510750  0.21039230  0.74219148    -0.04900
C2442       C  0.41096882  0.22652728  0.73781092    -0.04800
C2443       C  0.41139095  0.23945727  0.74968723    -0.23000
C2444       C  0.40591450  0.23656690  0.76622468     0.19200
C2445       C  0.39984660  0.22047141  0.77082795     0.16400
C2446       C  0.39949667  0.20745196  0.75878148    -0.18000
C2447       C  0.39439417  0.21768809  0.78744157    -0.19900
C2448       C  0.39511178  0.23065625  0.79938359    -0.12400
C2449       C  0.40129347  0.24664915  0.79494314     0.04200
C2450       C  0.40657565  0.24949895  0.77825269    -0.24600
H2451       H  0.41546129  0.22914434  0.72517775     0.09300
H2452       H  0.41610973  0.25170664  0.74594911     0.12900
H2453       H  0.39500751  0.19506389  0.76234208     0.12900
H2454       H  0.38969142  0.20545386  0.79123669     0.12600
H2455       H  0.39099064  0.22811435  0.81215406     0.13200
H2456       H  0.41139856  0.26175086  0.77463566     0.15100
C2457       C  0.40393491  0.05293896  0.71580056    -0.04900
C2458       C  0.40795427  0.06025920  0.73144601    -0.04800
C2459       C  0.40801630  0.07785411  0.73340162    -0.23000
C2460       C  0.40411132  0.08842952  0.71972446     0.19200
C2461       C  0.39956257  0.08105509  0.70415185     0.16400
C2462       C  0.39938180  0.06352239  0.70236146    -0.18000
C2463       C  0.39580670  0.09129479  0.69032821    -0.19900
C2464       C  0.39710988  0.10869664  0.69164244    -0.12400
C2465       C  0.40198084  0.11635636  0.70684693     0.04200
C2466       C  0.40512756  0.10615559  0.72106451    -0.24600
H2467       H  0.41163320  0.05242380  0.74197186     0.09300
H2468       H  0.41154542  0.08318493  0.74547071     0.12900
H2469       H  0.39622730  0.05811409  0.69020935     0.12900
H2470       H  0.39223945  0.08582202  0.67832954     0.12600
H2471       H  0.39446103  0.11622576  0.68057978     0.13200
H2472       H  0.40897189  0.11191769  0.73284191     0.15100
C2473       C  0.30142345  0.17054050  0.47175561    -0.04900
C2474       C  0.31270523  0.18113914  0.48042596    -0.04800
C2475       C  0.31269629  0.18173480  0.49813978    -0.23000
C2476       C  0.30136535  0.17177649  0.50748472     0.19200
C2477       C  0.29034330  0.16078090  0.49880417     0.16400
C2478       C  0.29051053  0.16018116  0.48113200    -0.18000
C2479       C  0.27896637  0.15080122  0.50788263    -0.19900
C2480       C  0.27806033  0.15204300  0.52538446    -0.12400
C2481       C  0.28859479  0.16318250  0.53429230     0.04200
C2482       C  0.30052420  0.17283470  0.52525809    -0.24600
H2483       H  0.32129589  0.18920261  0.47351204     0.09300
H2484       H  0.32132175  0.19020405  0.50450544     0.12900
H2485       H  0.28182749  0.15183727  0.47465675     0.12900
H2486       H  0.27051389  0.14222989  0.50141359     0.12600
H2487       H  0.26891617  0.14431137  0.53196566     0.13200
H2488       H  0.30879037  0.18140767  0.53196052     0.15100
C2489       C  0.31848615  0.17516085  0.62911028    -0.04900
C2490       C  0.31364178  0.17285157  0.64602486    -0.04800
C2491       C  0.32548708  0.17380916  0.65903525    -0.23000
C2492       C  0.34250878  0.17691703  0.65542428     0.19200
C2493       C  0.34756469  0.17952532  0.63852204     0.16400
C2494       C  0.33550895  0.17876550  0.62547736    -0.18000
C2495       C  0.36466759  0.18238063  0.63494772    -0.19900
C2496       C  0.37667602  0.18213068  0.64789438    -0.12400
C2497       C  0.37182228  0.17920908  0.66470814     0.04200
C2498       C  0.35460664  0.17694847  0.66839058    -0.24600
H2499       H  0.30065658  0.17005660  0.64921694     0.09300
H2500       H  0.32137229  0.17177257  0.67190950     0.12900
H2501       H  0.33945918  0.18048110  0.61250263     0.12900
H2502       H  0.36881510  0.18443148  0.62208873     0.12600
H2503       H  0.38983047  0.18393068  0.64469359     0.13200
H2504       H  0.35066395  0.17462665  0.68127604     0.15100
C2505       C  0.27506590  0.04775191  0.60056274    -0.04900
C2506       C  0.25864478  0.05424162  0.59945061    -0.04800
C2507       C  0.25600332  0.07171375  0.59912014    -0.23000
C2508       C  0.26977242  0.08292030  0.59962418     0.19200
C2509       C  0.28622092  0.07633670  0.60114314     0.16400
C2510       C  0.28869245  0.05898280  0.60187912    -0.18000
C2511       C  0.30014432  0.08713335  0.60127711    -0.19900
C2512       C  0.29794449  0.10434131  0.59947110    -0.12400
C2513       C  0.28177333  0.11124168  0.59770521     0.04200
C2514       C  0.26758810  0.10048505  0.59812213    -0.24600
H2515       H  0.24793199  0.04584289  0.59830975     0.09300
H2516       H  0.24327075  0.07643311  0.59794806     0.12900
H2517       H  0.30145409  0.05422073  0.60268192     0.12900
H2518       H  0.31281978  0.08223471  0.60241240     0.12600
H2519       H  0.30905119  0.11230503  0.59934389     0.13200
H2520       H  0.25505944  0.10566774  0.59669484     0.15100
C2521       C  0.16368948  0.30359425  0.53487143    -0.04900
C2522       C  0.14829901  0.30127595  0.52637952    -0.04800
C2523       C  0.14758157  0.30103832  0.50880154    -0.23000
C2524       C  0.16227385  0.30299558  0.49921084     0.19200
C2525       C  0.17783480  0.30585620  0.50742986     0.16400
C2526       C  0.17845658  0.30624890  0.52526455    -0.18000
C2527       C  0.19248519  0.30777478  0.49761425    -0.19900
C2528       C  0.19174433  0.30645567  0.47995322    -0.12400
C2529       C  0.17636133  0.30312927  0.47175087     0.04200
C2530       C  0.16164194  0.30167710  0.48154060    -0.24600
H2531       H  0.13674276  0.29923950  0.53337605     0.09300
H2532       H  0.13553969  0.29891236  0.50270630     0.12900
H2533       H  0.19043992  0.30793904  0.53161017     0.12900
H2534       H  0.20455998  0.31000219  0.50360272     0.12600
H2535       H  0.20328188  0.30762630  0.47273860     0.13200
H2536       H  0.14967098  0.29920029  0.47542097     0.15100
C2537       C  0.20454014  0.25522004  0.59333064    -0.04900
C2538       C  0.22117910  0.26013146  0.58959594    -0.04800
C2539       C  0.23418801  0.24835374  0.58923537    -0.23000
C2540       C  0.23086242  0.23136544  0.59258431     0.19200
C2541       C  0.21425786  0.22622985  0.59658490     0.16400
C2542       C  0.20119436  0.23818969  0.59697060    -0.18000
C2543       C  0.21101132  0.20918331  0.59989991    -0.19900
C2544       C  0.22402113  0.19734266  0.59904621    -0.12400
C2545       C  0.24054513  0.20229952  0.59488249     0.04200
C2546       C  0.24385226  0.21942167  0.59178835    -0.24600
H2547       H  0.22414345  0.27312130  0.58673038     0.09300
H2548       H  0.24684123  0.25252299  0.58616116     0.12900
H2549       H  0.18843386  0.23420643  0.59985408     0.12900
H2550       H  0.19838050  0.20497750  0.60300767     0.12600
H2551       H  0.22110891  0.18425798  0.60149229     0.13200
H2552       H  0.25651873  0.22346018  0.58857421     0.15100
C2553       C  0.16873191  0.32884098  0.63174061    -0.04900
C2554       C  0.16656657  0.32250280  0.64817864    -0.04800
C2555       C  0.16635912  0.33324649  0.66212647    -0.23000
C2556       C  0.16835860  0.35062458  0.66000386     0.19200
C2557       C  0.17073675  0.35721875  0.64360878     0.16400
C2558       C  0.17089209  0.34630147  0.62956905    -0.18000
C2559       C  0.17270893  0.37464324  0.64155902    -0.19900
C2560       C  0.17203674  0.38541666  0.65552733    -0.12400
C2561       C  0.16946991  0.37901351  0.67186417     0.04200
C2562       C  0.16780584  0.36151407  0.67398935    -0.24600
H2563       H  0.16478880  0.30916211  0.65027592     0.09300
H2564       H  0.16449743  0.32795067  0.67458390     0.12900
H2565       H  0.17254570  0.35139500  0.61699776     0.12900
H2566       H  0.17459725  0.37996990  0.62912348     0.12600
H2567       H  0.17340281  0.39881583  0.65351573     0.13200
H2568       H  0.16577920  0.35637074  0.68649185     0.15100
C2569       C  0.01141994  0.52645117  0.70422284    -0.04900
C2570       C  0.02218556  0.51840002  0.71569261    -0.04800
C2571       C  0.02391400  0.50097404  0.71544964    -0.23000
C2572       C  0.01463368  0.49131646  0.70394407     0.19200
C2573       C  0.00426852  0.49933459  0.69190781     0.16400
C2574       C  0.00292015  0.51691052  0.69196661    -0.18000
C2575       C  0.99483883  0.48958064  0.68055797    -0.19900
C2576       C  0.99509074  0.47203986  0.68163758    -0.12400
C2577       C  0.00480491  0.46404241  0.69404963     0.04200
C2578       C  0.01492810  0.47376021  0.70483641    -0.24600
H2579       H  0.02896589  0.52556949  0.72513667     0.09300
H2580       H  0.03200410  0.49501527  0.72467027     0.12900
H2581       H  0.99453968  0.52305377  0.68312898     0.12900
H2582       H  0.98684712  0.49551070  0.67123676     0.12600
H2583       H  0.98717853  0.46476262  0.67321455     0.13200
H2584       H  0.02254800  0.46767665  0.71438448     0.15100
C2585       C  0.04869524  0.39486333  0.72108643    -0.04900
C2586       C  0.05687151  0.38206336  0.71207982    -0.04800
C2587       C  0.07430764  0.38020158  0.71306386    -0.23000
C2588       C  0.08390805  0.39133269  0.72283126     0.19200
C2589       C  0.07573064  0.40346064  0.73295527     0.16400
C2590       C  0.05807788  0.40497324  0.73223800    -0.18000
C2591       C  0.08545963  0.41464284  0.74261801    -0.19900
C2592       C  0.10305157  0.41466050  0.74122102    -0.12400
C2593       C  0.11116388  0.40346774  0.73019036     0.04200
C2594       C  0.10154047  0.39131820  0.72164515    -0.24600
H2595       H  0.04985581  0.37401632  0.70356287     0.09300
H2596       H  0.08036190  0.37070102  0.70539992     0.12900
H2597       H  0.05187377  0.41491472  0.73919753     0.12900
H2598       H  0.07945147  0.42393545  0.75056870     0.12600
H2599       H  0.11022694  0.42407527  0.74802306     0.13200
H2600       H  0.10769772  0.38250931  0.71324807     0.15100
C2601       C  0.01197692  0.29460578  0.53450345    -0.04900
C2602       C  0.01754304  0.27989741  0.52648389    -0.04800
C2603       C  0.01889944  0.27925129  0.50899513    -0.23000
C2604       C  0.01461296  0.29327731  0.49927690     0.19200
C2605       C  0.00972960  0.30838464  0.50725408     0.16400
C2606       C  0.00860326  0.30900440  0.52486259    -0.18000
C2607       C  0.00537408  0.32236513  0.49744288    -0.19900
C2608       C  0.00520441  0.32115669  0.47987150    -0.12400
C2609       C  0.00943813  0.30597158  0.47191808     0.04200
C2610       C  0.01452185  0.29221128  0.48170136    -0.24600
H2611       H  0.02030644  0.26867901  0.53369215     0.09300
H2612       H  0.02275997  0.26761952  0.50305259     0.12900
H2613       H  0.00433080  0.32041268  0.53096820     0.12900
H2614       H  0.00165996  0.33406048  0.50335128     0.12600
H2615       H  0.00130730  0.33194082  0.47253370     0.13200
H2616       H  0.01792401  0.28047459  0.47566539     0.15100
C2617       C  0.04818098  0.28062694  0.60564550    -0.04900
C2618       C  0.05555704  0.29209598  0.61697891    -0.04800
C2619       C  0.07304287  0.29378545  0.61807646    -0.23000
C2620       C  0.08356487  0.28404805  0.60783931     0.19200
C2621       C  0.07642029  0.27163585  0.59723308     0.16400
C2622       C  0.05874065  0.26991706  0.59626660    -0.18000
C2623       C  0.08708012  0.26180879  0.58713755    -0.19900
C2624       C  0.10451086  0.26478241  0.58698124    -0.12400
C2625       C  0.11158152  0.27773455  0.59677893     0.04200
C2626       C  0.10103382  0.28705406  0.60749727    -0.24600
H2627       H  0.04777244  0.30048950  0.62436051     0.09300
H2628       H  0.07830562  0.30323511  0.62641103     0.12900
H2629       H  0.05325247  0.26110592  0.58738449     0.12900
H2630       H  0.08189366  0.25216151  0.57898834     0.12600
H2631       H  0.11237720  0.25741388  0.57864594     0.13200
H2632       H  0.10636192  0.29697979  0.61522808     0.15100
C2633       C  0.98988907  0.33947821  0.61234105    -0.04900
C2634       C  0.99899761  0.35401778  0.60796195    -0.04800
C2635       C  0.99967880  0.36770581  0.61902033    -0.23000
C2636       C  0.99135502  0.36694166  0.63462219     0.19200
C2637       C  0.98134204  0.35273014  0.63856633     0.16400
C2638       C  0.98049286  0.33924443  0.62732240    -0.18000
C2639       C  0.97309994  0.35175719  0.65412767    -0.19900
C2640       C  0.97549659  0.36430981  0.66611090    -0.12400
C2641       C  0.98605952  0.37812468  0.66269712     0.04200
C2642       C  0.99353714  0.37967478  0.64669507    -0.24600
H2643       H  0.00628498  0.35447170  0.59641865     0.09300
H2644       H  0.00730840  0.37854179  0.61571095     0.12900
H2645       H  0.97329408  0.32813448  0.63073653     0.12900
H2646       H  0.96531790  0.34097748  0.65728442     0.12600
H2647       H  0.96947648  0.36290611  0.67829486     0.13200
H2648       H  0.00167295  0.39030696  0.64394233     0.15100
C2649       C  0.70079799  0.17889186  0.53309212    -0.04900
C2650       C  0.68603189  0.18533744  0.52578635    -0.04800
C2651       C  0.68430509  0.18627302  0.50821146    -0.23000
C2652       C  0.69737483  0.18089750  0.49757971     0.19200
C2653       C  0.71230549  0.17448392  0.50483215     0.16400
C2654       C  0.71389228  0.17346812  0.52245837    -0.18000
C2655       C  0.72543716  0.16915762  0.49434375    -0.19900
C2656       C  0.72381098  0.17006529  0.47684665    -0.12400
C2657       C  0.70903127  0.17632724  0.46936637     0.04200
C2658       C  0.69580978  0.18178822  0.47986670    -0.24600
H2659       H  0.67574083  0.18955288  0.53367621     0.09300
H2660       H  0.67274612  0.19121311  0.50294196     0.12900
H2661       H  0.72538299  0.16851590  0.52789435     0.12900
H2662       H  0.73698460  0.16424047  0.49967222     0.12600
H2663       H  0.73421287  0.16578764  0.46913330     0.13200
H2664       H  0.68433784  0.18661765  0.47429602     0.15100
C2665       C  0.52763907  0.16648634  0.70358368    -0.04900
C2666       C  0.51985786  0.15258925  0.71136027    -0.04800
C2667       C  0.50234498  0.15113440  0.71190789    -0.23000
C2668       C  0.49220694  0.16357173  0.70471326     0.19200
C2669       C  0.49979501  0.17752782  0.69663027     0.16400
C2670       C  0.51749812  0.17890067  0.69609064    -0.18000
C2671       C  0.48950627  0.18987500  0.68934745    -0.19900
C2672       C  0.47191565  0.18840183  0.69010682    -0.12400
C2673       C  0.46432741  0.17466585  0.69832027     0.04200
C2674       C  0.47459461  0.16229280  0.70558881    -0.24600
H2675       H  0.52734438  0.14280702  0.71714301     0.09300
H2676       H  0.49672972  0.14031766  0.71807216     0.12900
H2677       H  0.52334178  0.18968203  0.69007268     0.12900
H2678       H  0.49505353  0.20068271  0.68311566     0.12600
H2679       H  0.46423951  0.19814836  0.68451815     0.13200
H2680       H  0.46886988  0.15161282  0.71191000     0.15100
C2681       C  0.61679937  0.18250495  0.66393547    -0.04900
C2682       C  0.61137537  0.18019812  0.64721261    -0.04800
C2683       C  0.62277338  0.18139055  0.63377289    -0.23000
C2684       C  0.63985875  0.18488517  0.63677747     0.19200
C2685       C  0.64532104  0.18798648  0.65346235     0.16400
C2686       C  0.63376923  0.18684184  0.66690891    -0.18000
C2687       C  0.66239828  0.19146085  0.65648817    -0.19900
C2688       C  0.67411070  0.19083700  0.64330532    -0.12400
C2689       C  0.66897964  0.18696690  0.62677716     0.04200
C2690       C  0.65168488  0.18458420  0.62351156    -0.24600
H2691       H  0.59839408  0.17689359  0.64454407     0.09300
H2692       H  0.61831260  0.17906393  0.62107118     0.12900
H2693       H  0.63812187  0.18875722  0.67972440     0.12900
H2694       H  0.66680498  0.19405680  0.66915801     0.12600
H2695       H  0.68730535  0.19291735  0.64614415     0.13200
H2696       H  0.64753735  0.18161480  0.61083108     0.15100
C2697       C  0.82785948  0.29361394  0.53244614    -0.04900
C2698       C  0.83132076  0.27799127  0.52491132    -0.04800
C2699       C  0.83167985  0.27618048  0.50745323    -0.23000
C2700       C  0.82854707  0.28994520  0.49697879     0.19200
C2701       C  0.82486948  0.30577288  0.50417839     0.16400
C2702       C  0.82452589  0.30754815  0.52194658    -0.18000
C2703       C  0.82178145  0.31946345  0.49340645    -0.19900
C2704       C  0.82248257  0.31746899  0.47579757    -0.12400
C2705       C  0.82621830  0.30174147  0.46861112     0.04200
C2706       C  0.82917883  0.28804782  0.47939089    -0.24600
H2707       H  0.83393796  0.26702992  0.53255559     0.09300
H2708       H  0.83451543  0.26396663  0.50213639     0.12900
H2709       H  0.82184181  0.31967618  0.52753605     0.12900
H2710       H  0.81893406  0.33172774  0.49858671     0.12600
H2711       H  0.82020082  0.32825560  0.46780402     0.13200
H2712       H  0.83215517  0.27585118  0.47409599     0.15100
C2713       C  0.78827806  0.26027530  0.59694755    -0.04900
C2714       C  0.77174199  0.26644593  0.59810700    -0.04800
C2715       C  0.75798841  0.25540193  0.59880499    -0.23000
C2716       C  0.76050375  0.23797003  0.59817910     0.19200
C2717       C  0.77709695  0.23161226  0.59744897     0.16400
C2718       C  0.79085960  0.24278461  0.59693812    -0.18000
C2719       C  0.77962535  0.21418655  0.59680278    -0.19900
C2720       C  0.76584993  0.20316962  0.59642781    -0.12400
C2721       C  0.74928783  0.20936041  0.59660453     0.04200
C2722       C  0.74671551  0.22681413  0.59777673    -0.24600
H2723       H  0.76941614  0.27984866  0.59820669     0.09300
H2724       H  0.74536577  0.26050750  0.59946206     0.12900
H2725       H  0.80354124  0.23785266  0.59599825     0.12900
H2726       H  0.79225459  0.20908392  0.59625790     0.12600
H2727       H  0.76816626  0.18979676  0.59549059     0.13200
H2728       H  0.73399702  0.23173609  0.59800706     0.15100
C2729       C  0.88345232  0.27832883  0.59437772    -0.04900
C2730       C  0.89083487  0.27665859  0.61038873    -0.04800
C2731       C  0.90828151  0.27435610  0.61199398    -0.23000
C2732       C  0.91858255  0.27356455  0.59759730     0.19200
C2733       C  0.91102989  0.27417395  0.58145748     0.16400
C2734       C  0.89357847  0.27651172  0.57996774    -0.18000
C2735       C  0.92114569  0.27337243  0.56701955    -0.19900
C2736       C  0.93865785  0.27327228  0.56849036    -0.12400
C2737       C  0.94643945  0.27375757  0.58441468     0.04200
C2738       C  0.93630451  0.27316976  0.59899170    -0.24600
H2739       H  0.88324181  0.27793700  0.62166499     0.09300
H2740       H  0.91377877  0.27380566  0.62448341     0.12900
H2741       H  0.88795066  0.27755571  0.56755314     0.12900
H2742       H  0.91554698  0.27365259  0.55456044     0.12600
H2743       H  0.94616590  0.27365066  0.55708117     0.13200
H2744       H  0.94215566  0.27369250  0.61132936     0.15100
C2745       C  0.52596544  0.30293993  0.82629696    -0.04900
C2746       C  0.51755287  0.31296801  0.81438952    -0.04800
C2747       C  0.49988071  0.31319304  0.81367320    -0.23000
C2748       C  0.49025287  0.30327868  0.82476459     0.19200
C2749       C  0.49861371  0.29331664  0.83690141     0.16400
C2750       C  0.51631807  0.29330233  0.83766516    -0.18000
C2751       C  0.48915447  0.28326036  0.84791429    -0.19900
C2752       C  0.47160005  0.28290291  0.84684987    -0.12400
C2753       C  0.46302003  0.29263552  0.83480464     0.04200
C2754       C  0.47247397  0.30293156  0.82381070    -0.24600
H2755       H  0.52465053  0.32047696  0.80545760     0.09300
H2756       H  0.49375612  0.32093298  0.80427384     0.12900
H2757       H  0.52258912  0.28541909  0.84685976     0.12900
H2758       H  0.49534524  0.27552267  0.85727719     0.12600
H2759       H  0.46471611  0.27485395  0.85547706     0.13200
H2760       H  0.46605730  0.31044985  0.81441872     0.15100
C2761       C  0.58538272  0.25916310  0.78327228    -0.04900
C2762       C  0.57764945  0.26308918  0.76782482    -0.04800
C2763       C  0.57690807  0.25130267  0.75480960    -0.23000
C2764       C  0.58388145  0.23530156  0.75694854     0.19200
C2765       C  0.59193205  0.23120682  0.77229828     0.16400
C2766       C  0.59269082  0.24318891  0.78536627    -0.18000
C2767       C  0.59882118  0.21510874  0.77436076    -0.19900
C2768       C  0.59756330  0.20315673  0.76143428    -0.12400
C2769       C  0.58947178  0.20710007  0.74617810     0.04200
C2770       C  0.58274354  0.22328685  0.74402960    -0.24600
H2771       H  0.57189425  0.27525153  0.76586197     0.09300
H2772       H  0.57069293  0.25465073  0.74312456     0.12900
H2773       H  0.59865355  0.23997420  0.79722401     0.12900
H2774       H  0.60505258  0.21171085  0.78601916     0.12600
H2775       H  0.60286185  0.19079136  0.76340785     0.13200
H2776       H  0.57642318  0.22650600  0.73235682     0.15100
C2777       C  0.59177624  0.27775791  0.87598543    -0.04900
C2778       C  0.58196737  0.26500283  0.88343897    -0.04800
C2779       C  0.58318622  0.26170225  0.90076593    -0.23000
C2780       C  0.59425672  0.27109843  0.91091390     0.19200
C2781       C  0.60483688  0.28326359  0.90327213     0.16400
C2782       C  0.60357300  0.28645399  0.88592110    -0.18000
C2783       C  0.61588107  0.29274399  0.91324153    -0.19900
C2784       C  0.61556481  0.29115443  0.93074536    -0.12400
C2785       C  0.60433013  0.27994439  0.93866947     0.04200
C2786       C  0.59421547  0.26934428  0.92862297    -0.24600
H2787       H  0.57281378  0.25809124  0.87602133     0.09300
H2788       H  0.57502374  0.25225690  0.90632171     0.12900
H2789       H  0.61130654  0.29622062  0.88028136     0.12900
H2790       H  0.62417384  0.30201368  0.90757164     0.12600
H2791       H  0.62351235  0.29941553  0.93817194     0.13200
H2792       H  0.58538897  0.26076674  0.93458134     0.15100
C2793       C  0.66756076  0.37665409  0.81336251    -0.04900
C2794       C  0.67339312  0.36004042  0.81181518    -0.04800
C2795       C  0.66215193  0.34641861  0.81225663    -0.23000
C2796       C  0.64480968  0.34907881  0.81441838     0.19200
C2797       C  0.63873503  0.36570963  0.81568564     0.16400
C2798       C  0.65010076  0.37937306  0.81499461    -0.18000
C2799       C  0.62142463  0.36837398  0.81805397    -0.19900
C2800       C  0.61027570  0.35474192  0.81941767    -0.12400
C2801       C  0.61612867  0.33811844  0.81829397     0.04200
C2802       C  0.63348650  0.33541034  0.81564050    -0.24600
H2803       H  0.68674274  0.35753414  0.81057926     0.09300
H2804       H  0.66707492  0.33377543  0.81124155     0.12900
H2805       H  0.64540150  0.39207629  0.81632216     0.12900
H2806       H  0.61651456  0.38102065  0.81906578     0.12600
H2807       H  0.59701812  0.35723132  0.82142066     0.13200
H2808       H  0.63823272  0.32268131  0.81480517     0.15100
C2809       C  0.71208969  0.41320534  0.93868016    -0.04900
C2810       C  0.72673164  0.42071153  0.93203308    -0.04800
C2811       C  0.72998107  0.42013195  0.91461408    -0.23000
C2812       C  0.71856376  0.41213934  0.90362980     0.19200
C2813       C  0.70440405  0.40372245  0.91048760     0.16400
C2814       C  0.70141356  0.40414544  0.92786486    -0.18000
C2815       C  0.69279476  0.39584860  0.89980631    -0.19900
C2816       C  0.69449763  0.39722373  0.88240554    -0.12400
C2817       C  0.70795750  0.40629110  0.87528722     0.04200
C2818       C  0.72041032  0.41318239  0.88594818    -0.24600
H2819       H  0.73512831  0.42781133  0.94013208     0.09300
H2820       H  0.74097330  0.42658558  0.90966872     0.12900
H2821       H  0.69014010  0.39820873  0.93286513     0.12900
H2822       H  0.68195316  0.38925244  0.90490444     0.12600
H2823       H  0.68488157  0.39163831  0.87446542     0.13200
H2824       H  0.73082137  0.42023343  0.88056537     0.15100
C2825       C  0.83086846  0.37711864  0.67261734    -0.04900
C2826       C  0.82928844  0.36055512  0.67865141    -0.04800
C2827       C  0.82839061  0.34696426  0.66753430    -0.23000
C2828       C  0.82907874  0.34958739  0.65007786     0.19200
C2829       C  0.83045426  0.36614629  0.64374357     0.16400
C2830       C  0.83132383  0.37983551  0.65505028    -0.18000
C2831       C  0.83110142  0.36865287  0.62621823    -0.19900
C2832       C  0.83060713  0.35491365  0.61513216    -0.12400
C2833       C  0.82947011  0.33838481  0.62132881     0.04200
C2834       C  0.82859302  0.33587979  0.63888703    -0.24600
H2835       H  0.82886377  0.35804648  0.69206841     0.09300
H2836       H  0.82729126  0.33436351  0.67261827     0.12900
H2837       H  0.83252965  0.39251860  0.65019773     0.12900
H2838       H  0.83212484  0.38123311  0.62107915     0.12600
H2839       H  0.83130482  0.35722032  0.60169216     0.13200
H2840       H  0.82767984  0.32322662  0.64388994     0.15100
C2841       C  0.74359457  0.41471178  0.78341890    -0.04900
C2842       C  0.73956998  0.41869178  0.76662450    -0.04800
C2843       C  0.75195160  0.41869848  0.75412534    -0.23000
C2844       C  0.76865806  0.41478114  0.75814929     0.19200
C2845       C  0.77294558  0.41064284  0.77493728     0.16400
C2846       C  0.76036536  0.41058566  0.78748452    -0.18000
C2847       C  0.78977580  0.40687953  0.77886196    -0.19900
C2848       C  0.80224095  0.40754677  0.76633958    -0.12400
C2849       C  0.79805289  0.41181249  0.74965394     0.04200
C2850       C  0.78116224  0.41520849  0.74565657    -0.24600
H2851       H  0.72680130  0.42194682  0.76313086     0.09300
H2852       H  0.74847248  0.42192605  0.74131793     0.12900
H2853       H  0.76365466  0.40752526  0.80038485     0.12900
H2854       H  0.79333088  0.40363576  0.79164097     0.12600
H2855       H  0.81516690  0.40482093  0.76972286     0.13200
H2856       H  0.77776513  0.41856636  0.73285485     0.15100
C2857       C  0.95028727  0.40631915  0.72839564    -0.04900
C2858       C  0.94238737  0.39052978  0.72722956    -0.04800
C2859       C  0.92483376  0.38919831  0.72804176    -0.23000
C2860       C  0.91496921  0.40364781  0.73004972     0.19200
C2861       C  0.92291706  0.41938342  0.73259107     0.16400
C2862       C  0.94053021  0.42059893  0.73182707    -0.18000
C2863       C  0.91309128  0.43383086  0.73464219    -0.19900
C2864       C  0.89560587  0.43292437  0.73287608    -0.12400
C2865       C  0.88768046  0.41755481  0.72907043     0.04200
C2866       C  0.89737444  0.40281678  0.72842543    -0.24600
H2867       H  0.94967458  0.37939058  0.72442277     0.09300
H2868       H  0.91895808  0.37701928  0.72618198     0.12900
H2869       H  0.94656457  0.43282090  0.73273622     0.12900
H2870       H  0.91897726  0.44595934  0.73678234     0.12600
H2871       H  0.88838762  0.44442568  0.73359523     0.13200
H2872       H  0.89136467  0.39087036  0.72565295     0.15100
C2873       C  0.53099639  0.00734425  0.71229417    -0.04900
C2874       C  0.52271551  0.00946092  0.72781428    -0.04800
C2875       C  0.50515070  0.00969292  0.72860088    -0.23000
C2876       C  0.49558877  0.00777439  0.71387439     0.19200
C2877       C  0.50381203  0.00595705  0.69816202     0.16400
C2878       C  0.52145291  0.00583439  0.69746279    -0.18000
C2879       C  0.49425131  0.00398012  0.68344346    -0.19900
C2880       C  0.47668652  0.00357175  0.68429717    -0.12400
C2881       C  0.46840286  0.00516235  0.69987040     0.04200
C2882       C  0.47795098  0.00738912  0.71462526    -0.24600
H2883       H  0.52981820  0.01067330  0.73941279     0.09300
H2884       H  0.49905327  0.01113460  0.74074264     0.12900
H2885       H  0.52772264  0.00419760  0.68542693     0.12900
H2886       H  0.50035382  0.00256631  0.67130174     0.12600
H2887       H  0.46958530  0.00181450  0.67276935     0.13200
H2888       H  0.47168539  0.00861470  0.72671453     0.15100
C2889       C  0.59652206  0.05386169  0.72128129    -0.04900
C2890       C  0.59435618  0.06183913  0.73693310    -0.04800
C2891       C  0.59405399  0.07948339  0.73795404    -0.23000
C2892       C  0.59576019  0.08935772  0.72331254     0.19200
C2893       C  0.59863475  0.08131602  0.70769763     0.16400
C2894       C  0.59925774  0.06377964  0.70685733    -0.18000
C2895       C  0.60007688  0.09085001  0.69294078    -0.19900
C2896       C  0.59804781  0.10820461  0.69345893    -0.12400
C2897       C  0.59479189  0.11646838  0.70876395     0.04200
C2898       C  0.59403708  0.10700708  0.72379750    -0.24600
H2899       H  0.59215873  0.05447190  0.74820900     0.09300
H2900       H  0.59188102  0.08537450  0.75007224     0.12900
H2901       H  0.60105932  0.05781676  0.69469318     0.12900
H2902       H  0.60229606  0.08482899  0.68088665     0.12600
H2903       H  0.59879567  0.11517509  0.68174574     0.13200
H2904       H  0.59143539  0.11324507  0.73565964     0.15100
C2905       C  0.70533034  0.00883584  0.53763833    -0.04900
C2906       C  0.72043719  0.01166910  0.52881421    -0.04800
C2907       C  0.72053871  0.01240358  0.51128140    -0.23000
C2908       C  0.70554893  0.01021196  0.50225685     0.19200
C2909       C  0.69021087  0.00752242  0.51093951     0.16400
C2910       C  0.69018218  0.00692145  0.52862761    -0.18000
C2911       C  0.67526458  0.00525558  0.50173895    -0.19900
C2912       C  0.67560862  0.00537060  0.48409462    -0.12400
C2913       C  0.69089925  0.00778121  0.47545390     0.04200
C2914       C  0.70576488  0.01039719  0.48465613    -0.24600
H2915       H  0.73225182  0.01323833  0.53547496     0.09300
H2916       H  0.73237961  0.01449980  0.50477564     0.12900
H2917       H  0.67846899  0.00471220  0.53532929     0.12900
H2918       H  0.66338055  0.00319621  0.50816984     0.12600
H2919       H  0.66398529  0.00333619  0.47722348     0.13200
H2920       H  0.71762271  0.01234103  0.47812163     0.15100
C2921       C  0.71842141  0.05767164  0.59977336    -0.04900
C2922       C  0.73420426  0.06520873  0.59687824    -0.04800
C2923       C  0.73572809  0.08280561  0.59607779    -0.23000
C2924       C  0.72147319  0.09308832  0.59809785     0.19200
C2925       C  0.70573603  0.08551045  0.60167219     0.16400
C2926       C  0.70438191  0.06799820  0.60267097    -0.18000
C2927       C  0.69137517  0.09548664  0.60354658    -0.19900
C2928       C  0.69239752  0.11282269  0.60134366    -0.12400
C2929       C  0.70783022  0.12062921  0.59744900     0.04200
C2930       C  0.72247340  0.11070530  0.59614651    -0.24600
H2931       H  0.74518566  0.05751491  0.59454225     0.09300
H2932       H  0.74793193  0.08833810  0.59337180     0.12900
H2933       H  0.69213902  0.06236150  0.60505000     0.12900
H2934       H  0.67923776  0.08983546  0.60633902     0.12600
H2935       H  0.68098692  0.12014871  0.60257378     0.13200
H2936       H  0.73444546  0.11658579  0.59312395     0.15100
C2937       C  0.67104027  0.00056960  0.63202571    -0.04900
C2938       C  0.67672540  0.99843955  0.64866574    -0.04800
C2939       C  0.66525785  0.99697103  0.66191170    -0.23000
C2940       C  0.64791638  0.99766610  0.65873238     0.19200
C2941       C  0.64205181  0.99974570  0.64203582     0.16400
C2942       C  0.65365432  0.00115781  0.62877959    -0.18000
C2943       C  0.62468583  0.00053578  0.63891494    -0.19900
C2944       C  0.61323333  0.99957704  0.65226470    -0.12400
C2945       C  0.61898060  0.99774851  0.66891143     0.04200
C2946       C  0.63636012  0.99658558  0.67202080    -0.24600
H2947       H  0.69007185  0.99791322  0.65146554     0.09300
H2948       H  0.66995197  0.99539194  0.67464190     0.12900
H2949       H  0.64914998  0.00280795  0.61598482     0.12900
H2950       H  0.61997507  0.00211672  0.62619350     0.12600
H2951       H  0.59989069  0.00054709  0.64958736     0.13200
H2952       H  0.64094124  0.99521889  0.68482498     0.15100
C2953       C  0.71026316  0.82651925  0.53457444    -0.04900
C2954       C  0.72605751  0.82720447  0.52652710    -0.04800
C2955       C  0.72736258  0.82717321  0.50899089    -0.23000
C2956       C  0.71288581  0.82651641  0.49893947     0.19200
C2957       C  0.69685528  0.82541404  0.50666492     0.16400
C2958       C  0.69560826  0.82533086  0.52451164    -0.18000
C2959       C  0.68245516  0.82473483  0.49632403    -0.19900
C2960       C  0.68395829  0.82539389  0.47863635    -0.12400
C2961       C  0.69988078  0.82680785  0.47090414     0.04200
C2962       C  0.71427737  0.82721948  0.48126718    -0.24600
H2963       H  0.73755535  0.82799495  0.53384655     0.09300
H2964       H  0.73975301  0.82792593  0.50327886     0.12900
H2965       H  0.68333343  0.82484088  0.53049625     0.12900
H2966       H  0.67001687  0.82388063  0.50190921     0.12600
H2967       H  0.67264150  0.82510216  0.47101662     0.13200
H2968       H  0.72666206  0.82827863  0.47557500     0.15100
C2969       C  0.71403533  0.88832208  0.58734358    -0.04900
C2970       C  0.70205756  0.89589223  0.57674203    -0.04800
C2971       C  0.70079884  0.91328071  0.57560586    -0.23000
C2972       C  0.71151208  0.92361521  0.58503298     0.19200
C2973       C  0.72396167  0.91640101  0.59548055     0.16400
C2974       C  0.72520046  0.89869050  0.59657426    -0.18000
C2975       C  0.73468082  0.92710409  0.60474981    -0.19900
C2976       C  0.73281771  0.94466988  0.60387129    -0.12400
C2977       C  0.72015645  0.95178836  0.59378584     0.04200
C2978       C  0.70970601  0.94108759  0.58428471    -0.24600
H2979       H  0.69340225  0.88832733  0.56936592     0.09300
H2980       H  0.69126384  0.91865166  0.56746574     0.12900
H2981       H  0.73453205  0.89304654  0.60475674     0.12900
H2982       H  0.74435421  0.92189768  0.61281809     0.12600
H2983       H  0.74099959  0.95264425  0.61134615     0.13200
H2984       H  0.69993676  0.94636358  0.57634769     0.15100
C2985       C  0.82337597  0.70780527  0.53228363    -0.04900
C2986       C  0.82873364  0.72285056  0.52458729    -0.04800
C2987       C  0.82869998  0.72461754  0.50707736    -0.23000
C2988       C  0.82324085  0.71139695  0.49675930     0.19200
C2989       C  0.81758956  0.69623648  0.50419266     0.16400
C2990       C  0.81772252  0.69449361  0.52194636    -0.18000
C2991       C  0.81205858  0.68310122  0.49367731    -0.19900
C2992       C  0.81239339  0.68488813  0.47604863    -0.12400
C2993       C  0.81826021  0.69984113  0.46856405     0.04200
C2994       C  0.82352640  0.71309411  0.47911204    -0.24600
H2995       H  0.83315641  0.73331847  0.53213675     0.09300
H2996       H  0.83305151  0.73633722  0.50159721     0.12900
H2997       H  0.81349831  0.68284456  0.52766803     0.12900
H2998       H  0.80760861  0.67138658  0.49907608     0.12600
H2999       H  0.80823886  0.67448846  0.46826422     0.13200
H3000       H  0.82804977  0.72473583  0.47358978     0.15100
C3001       C  0.75026287  0.79521708  0.59898962    -0.04900
C3002       C  0.76693926  0.79995258  0.60277577    -0.04800
C3003       C  0.77977286  0.78792410  0.60358841    -0.23000
C3004       C  0.77623740  0.77089077  0.60053190     0.19200
C3005       C  0.75948103  0.76591275  0.59703461     0.16400
C3006       C  0.74662220  0.77805553  0.59637091    -0.18000
C3007       C  0.75593819  0.74891749  0.59383812    -0.19900
C3008       C  0.76890731  0.73704592  0.59362786    -0.12400
C3009       C  0.78570646  0.74186126  0.59670531     0.04200
C3010       C  0.78921769  0.75883648  0.60045692    -0.24600
H3011       H  0.77013774  0.81303753  0.60482921     0.09300
H3012       H  0.79253305  0.79200089  0.60630319     0.12900
H3013       H  0.73385344  0.77417472  0.59339838     0.12900
H3014       H  0.74316910  0.74484663  0.59115357     0.12600
H3015       H  0.76580954  0.72410259  0.59069536     0.13200
H3016       H  0.80209955  0.76276882  0.60280835     0.15100
C3017       C  0.94415566  0.71589938  0.58474661    -0.04900
C3018       C  0.93661294  0.71724305  0.56875453    -0.04800
C3019       C  0.91914331  0.71834409  0.56708974    -0.23000
C3020       C  0.90879500  0.71804169  0.58139214     0.19200
C3021       C  0.91618717  0.71776070  0.59761462     0.16400
C3022       C  0.93387613  0.71682097  0.59921207    -0.18000
C3023       C  0.90568475  0.71758427  0.61188472    -0.19900
C3024       C  0.88810603  0.71697132  0.61006871    -0.12400
C3025       C  0.88073435  0.71635468  0.59396755     0.04200
C3026       C  0.89118552  0.71728210  0.57968223    -0.24600
H3027       H  0.94420268  0.71664641  0.55741384     0.09300
H3028       H  0.91369741  0.71873939  0.55456740     0.12900
H3029       H  0.93950395  0.71570368  0.61161013     0.12900
H3030       H  0.91106485  0.71743915  0.62443694     0.12600
H3031       H  0.88030092  0.71626597  0.62125683     0.13200
H3032       H  0.88561835  0.71696014  0.56719979     0.15100
C3033       C  0.53012238  0.82241187  0.70983996    -0.04900
C3034       C  0.52139341  0.82376501  0.72522635    -0.04800
C3035       C  0.50380317  0.82356312  0.72570176    -0.23000
C3036       C  0.49448072  0.82201867  0.71078560     0.19200
C3037       C  0.50299290  0.82009704  0.69524570     0.16400
C3038       C  0.52079150  0.82025999  0.69485580    -0.18000
C3039       C  0.49350672  0.81846446  0.68037062    -0.19900
C3040       C  0.47583857  0.81921533  0.68085014    -0.12400
C3041       C  0.46730969  0.82166639  0.69619696     0.04200
C3042       C  0.47678798  0.82277430  0.71116045    -0.24600
H3043       H  0.52818393  0.82535792  0.73696534     0.09300
H3044       H  0.49748539  0.82495047  0.73773736     0.12900
H3045       H  0.52732483  0.81918743  0.68290155     0.12900
H3046       H  0.49975573  0.81690215  0.66832573     0.12600
H3047       H  0.46886576  0.81828525  0.66915131     0.13200
H3048       H  0.47041185  0.82455591  0.72311910     0.15100
C3049       C  0.62051170  0.82788753  0.66785155    -0.04900
C3050       C  0.61487104  0.82598514  0.65113455    -0.04800
C3051       C  0.62633796  0.82596078  0.63763308    -0.23000
C3052       C  0.64372653  0.82773712  0.64055437     0.19200
C3053       C  0.64951028  0.82960743  0.65731108     0.16400
C3054       C  0.63792898  0.82969927  0.67077827    -0.18000
C3055       C  0.66681532  0.83141114  0.66035917    -0.19900
C3056       C  0.67831673  0.83139612  0.64699584    -0.12400
C3057       C  0.67286275  0.82953514  0.63020917     0.04200
C3058       C  0.65543260  0.82770425  0.62708500    -0.24600
H3059       H  0.60154613  0.82466188  0.64847173     0.09300
H3060       H  0.62159361  0.82456061  0.62490005     0.12900
H3061       H  0.64251037  0.83119972  0.68356804     0.12900
H3062       H  0.67148512  0.83287548  0.67311609     0.12600
H3063       H  0.69158552  0.83288027  0.64984794     0.13200
H3064       H  0.65098242  0.82638181  0.61423383     0.15100
C3065       C  0.58102941  0.88559573  0.71778077    -0.04900
C3066       C  0.56715899  0.89327773  0.70992964    -0.04800
C3067       C  0.56503348  0.91062241  0.71047326    -0.23000
C3068       C  0.57680821  0.92078567  0.71877576     0.19200
C3069       C  0.59069242  0.91339886  0.72706132     0.16400
C3070       C  0.59269243  0.89574565  0.72661464    -0.18000
C3071       C  0.60246152  0.92390233  0.73521413    -0.19900
C3072       C  0.60081504  0.94148968  0.73452751    -0.12400
C3073       C  0.58733878  0.94882190  0.72574418     0.04200
C3074       C  0.57514653  0.93828765  0.71834765    -0.24600
H3075       H  0.55791360  0.88584756  0.70315359     0.09300
H3076       H  0.55431128  0.91612091  0.70409002     0.12900
H3077       H  0.60344690  0.89000678  0.73271216     0.12900
H3078       H  0.61318412  0.91854344  0.74169515     0.12600
H3079       H  0.61040677  0.94932937  0.74027596     0.13200
H3080       H  0.56460619  0.94373550  0.71160780     0.15100
C3081       C  0.52627367  0.70576331  0.82658497    -0.04900
C3082       C  0.51802422  0.69420628  0.81596334    -0.04800
C3083       C  0.50034116  0.69340504  0.81540595    -0.23000
C3084       C  0.49054579  0.70414383  0.82547142     0.19200
C3085       C  0.49876190  0.71571281  0.83625154     0.16400
C3086       C  0.51645685  0.71643156  0.83674539    -0.18000
C3087       C  0.48916532  0.72651804  0.84630995    -0.19900
C3088       C  0.47159852  0.72611391  0.84553672    -0.12400
C3089       C  0.46313612  0.71483538  0.83477194     0.04200
C3090       C  0.47273980  0.70370081  0.82484615    -0.24600
H3091       H  0.52524845  0.68580509  0.80804655     0.09300
H3092       H  0.49433373  0.68443110  0.80704920     0.12900
H3093       H  0.52258671  0.72537267  0.84506592     0.12900
H3094       H  0.49525420  0.73543680  0.85467543     0.12600
H3095       H  0.46460155  0.73480583  0.85334865     0.13200
H3096       H  0.46641401  0.69498246  0.81644466     0.15100
C3097       C  0.59615268  0.79055710  0.74667792    -0.04900
C3098       C  0.59597678  0.77394723  0.74060502    -0.04800
C3099       C  0.59601242  0.76031801  0.75168240    -0.23000
C3100       C  0.59612821  0.76295702  0.76913365     0.19200
C3101       C  0.59710357  0.77952529  0.77551487     0.16400
C3102       C  0.59723186  0.79326733  0.76422965    -0.18000
C3103       C  0.59725508  0.78199904  0.79306224    -0.19900
C3104       C  0.59571162  0.76827576  0.80409096    -0.12400
C3105       C  0.59399785  0.75182800  0.79778627     0.04200
C3106       C  0.59464685  0.74928574  0.78025430    -0.24600
H3107       H  0.59528055  0.77144576  0.72719978     0.09300
H3108       H  0.59541097  0.74769468  0.74657841     0.12900
H3109       H  0.59739190  0.80599025  0.76911259     0.12900
H3110       H  0.59810626  0.79457040  0.79825193     0.12600
H3111       H  0.59533603  0.77058794  0.81754323     0.13200
H3112       H  0.59348325  0.73667277  0.77520035     0.15100
C3113       C  0.58432722  0.70601189  0.88573611    -0.04900
C3114       C  0.58160776  0.68996450  0.89266259    -0.04800
C3115       C  0.58136904  0.68756547  0.91001324    -0.23000
C3116       C  0.58374473  0.70118184  0.92089437     0.19200
C3117       C  0.58651729  0.71745620  0.91429755     0.16400
C3118       C  0.58687325  0.71979823  0.89665034    -0.18000
C3119       C  0.58861915  0.73100044  0.92553148    -0.19900
C3120       C  0.58763434  0.72841825  0.94304879    -0.12400
C3121       C  0.58470520  0.71223403  0.94955879     0.04200
C3122       C  0.58304130  0.69869183  0.93831055    -0.24600
H3123       H  0.57957347  0.67913705  0.88462892     0.09300
H3124       H  0.57916108  0.67503372  0.91492677     0.12900
H3125       H  0.58888555  0.73225029  0.89146689     0.12900
H3126       H  0.59075019  0.74359672  0.92077735     0.12600
H3127       H  0.58890519  0.73906802  0.95145893     0.13200
H3128       H  0.58072399  0.68611829  0.94308281     0.15100
C3129       C  0.82347662  0.53327469  0.70084917    -0.04900
C3130       C  0.80895251  0.52530775  0.70720851    -0.04800
C3131       C  0.80717506  0.50784046  0.70643615    -0.23000
C3132       C  0.81994319  0.49794946  0.69938067     0.19200
C3133       C  0.83426785  0.50582482  0.69223938     0.16400
C3134       C  0.83590286  0.52344786  0.69291797    -0.18000
C3135       C  0.84705300  0.49586940  0.68525297    -0.19900
C3136       C  0.84611713  0.47831165  0.68622035    -0.12400
C3137       C  0.83232988  0.47036485  0.69408416     0.04200
C3138       C  0.81899491  0.48031238  0.70011623    -0.24600
H3139       H  0.79916730  0.53254353  0.71332491     0.09300
H3140       H  0.79606329  0.50202966  0.71188917     0.12900
H3141       H  0.84716816  0.52941250  0.68795310     0.12900
H3142       H  0.85808378  0.50165920  0.67961649     0.12600
H3143       H  0.85654454  0.47097434  0.68144020     0.13200
H3144       H  0.80827116  0.47437834  0.70619321     0.15100
C3145       C  0.82908903  0.62494668  0.67415688    -0.04900
C3146       C  0.83247177  0.64158922  0.67913504    -0.04800
C3147       C  0.83188966  0.65475750  0.66754982    -0.23000
C3148       C  0.82791869  0.65164863  0.65063734     0.19200
C3149       C  0.82453935  0.63503131  0.64528140     0.16400
C3150       C  0.82513685  0.62172075  0.65709763    -0.18000
C3151       C  0.82069971  0.63212747  0.62820739    -0.19900
C3152       C  0.82032080  0.64551597  0.61662697    -0.12400
C3153       C  0.82365870  0.66208202  0.62191176     0.04200
C3154       C  0.82738581  0.66496404  0.63902211    -0.24600
H3155       H  0.83562320  0.64449608  0.69210060     0.09300
H3156       H  0.83457575  0.66741769  0.67184570     0.12900
H3157       H  0.82255990  0.60895857  0.65304348     0.12900
H3158       H  0.81807532  0.61950060  0.62378802     0.12600
H3159       H  0.81745382  0.64290846  0.60353653     0.13200
H3160       H  0.83009434  0.67762179  0.64332936     0.15100
C3161       C  0.88600266  0.58744517  0.72882574    -0.04900
C3162       C  0.89428891  0.60299006  0.73064497    -0.04800
C3163       C  0.91180442  0.60374994  0.73252967    -0.23000
C3164       C  0.92137983  0.58897064  0.73256251     0.19200
C3165       C  0.91308653  0.57323381  0.73142426     0.16400
C3166       C  0.89546869  0.57256706  0.72970100    -0.18000
C3167       C  0.92263299  0.55845896  0.73111593    -0.19900
C3168       C  0.94022483  0.55930779  0.73073594    -0.12400
C3169       C  0.94861930  0.57490226  0.73110112     0.04200
C3170       C  0.93911900  0.58969031  0.73270943    -0.24600
H3171       H  0.88728869  0.61463078  0.73002949     0.09300
H3172       H  0.91790934  0.61592589  0.73338253     0.12900
H3173       H  0.88922628  0.56049401  0.72833206     0.12900
H3174       H  0.91650660  0.54628431  0.73031542     0.12600
H3175       H  0.94730273  0.54776899  0.72940838     0.13200
H3176       H  0.94547248  0.60178049  0.73266717     0.15100
C3177       C  0.69425181  0.47243917  0.82333915    -0.04900
C3178       C  0.68482891  0.48077252  0.81089200    -0.04800
C3179       C  0.68388372  0.49839339  0.81066415    -0.23000
C3180       C  0.69231308  0.50803898  0.82291125     0.19200
C3181       C  0.70148160  0.49973098  0.83569255     0.16400
C3182       C  0.70235393  0.48208326  0.83584609    -0.18000
C3183       C  0.70994200  0.50920752  0.84795789    -0.19900
C3184       C  0.70964839  0.52674943  0.84741759    -0.12400
C3185       C  0.70083971  0.53529593  0.83464972     0.04200
C3186       C  0.69200553  0.52579734  0.82247573    -0.24600
H3187       H  0.67849175  0.47368017  0.80109826     0.09300
H3188       H  0.67675743  0.50448019  0.80076175     0.12900
H3189       H  0.70963914  0.47586960  0.84556639     0.12900
H3190       H  0.71700579  0.50304890  0.85786761     0.12600
H3191       H  0.71655234  0.53365918  0.85696046     0.13200
H3192       H  0.68522422  0.53217845  0.81251097     0.15100
C3193       C  0.67021534  0.63078959  0.82238678    -0.04900
C3194       C  0.67594859  0.64747372  0.82410718    -0.04800
C3195       C  0.66467375  0.66094245  0.82396342    -0.23000
C3196       C  0.64733648  0.65809939  0.82204213     0.19200
C3197       C  0.64138420  0.64147940  0.81971778     0.16400
C3198       C  0.65283989  0.62791675  0.81991355    -0.18000
C3199       C  0.62402282  0.63871660  0.81764502    -0.19900
C3200       C  0.61266939  0.65216103  0.81836032    -0.12400
C3201       C  0.61837365  0.66868775  0.82121622     0.04200
C3202       C  0.63584148  0.67155765  0.82279688    -0.24600
H3203       H  0.68920718  0.65013852  0.82601317     0.09300
H3204       H  0.66951058  0.67358513  0.82567065     0.12900
H3205       H  0.64819199  0.61515971  0.81855387     0.12900
H3206       H  0.61917548  0.62610587  0.81575917     0.12600
H3207       H  0.59932827  0.64954169  0.81708219     0.13200
H3208       H  0.64048074  0.68421081  0.82495632     0.15100
C3209       C  0.74554580  0.59416098  0.79281576    -0.04900
C3210       C  0.74020522  0.59230619  0.77601363    -0.04800
C3211       C  0.75180890  0.59202224  0.76282477    -0.23000
C3212       C  0.76907078  0.59346907  0.76611854     0.19200
C3213       C  0.77473941  0.59546508  0.78290474     0.16400
C3214       C  0.76291116  0.59591348  0.79619463    -0.18000
C3215       C  0.79213317  0.59665631  0.78603476    -0.19900
C3216       C  0.80372369  0.59555828  0.77271095    -0.12400
C3217       C  0.79812041  0.59345423  0.75601086     0.04200
C3218       C  0.78072597  0.59263354  0.75284964    -0.24600
H3219       H  0.72695741  0.59092385  0.77301645     0.09300
H3220       H  0.74726828  0.59045313  0.75003334     0.12900
H3221       H  0.76721465  0.59726811  0.80909510     0.12900
H3222       H  0.79677852  0.59819666  0.79878954     0.12600
H3223       H  0.81707257  0.59625820  0.77547768     0.13200
H3224       H  0.77622239  0.59093029  0.74005493     0.15100
C3225       C  0.71929383  0.60325406  0.94883057    -0.04900
C3226       C  0.73468548  0.59832298  0.94160739    -0.04800
C3227       C  0.73667900  0.59803135  0.92398870    -0.23000
C3228       C  0.72324855  0.60249625  0.91333318     0.19200
C3229       C  0.70803835  0.60818306  0.92060041     0.16400
C3230       C  0.70625587  0.60869413  0.93816160    -0.18000
C3231       C  0.69447075  0.61252066  0.91023707    -0.19900
C3232       C  0.69555673  0.61037578  0.89284967    -0.12400
C3233       C  0.71027739  0.60401512  0.88538696     0.04200
C3234       C  0.72437508  0.60064204  0.89565283    -0.24600
H3235       H  0.74491277  0.59404142  0.94953219     0.09300
H3236       H  0.74848607  0.59370829  0.91870784     0.12900
H3237       H  0.69431462  0.61259502  0.94351008     0.12900
H3238       H  0.68276875  0.61700498  0.91562984     0.12600
H3239       H  0.68461423  0.61328300  0.88524059     0.13200
H3240       H  0.73579962  0.59574715  0.89003205     0.15100
loop_ 
_geom_bond_atom_site_label_1 
_geom_bond_atom_site_label_2 
_geom_bond_distance 
_geom_bond_site_symmetry_2 
_ccdc_geom_bond_type 
O1            C4   1.270       .  A
O1           Cd6   2.516       .  S
C2           O11   1.264       .  A
C2            O7   1.268       .  A
C2         C3209   1.484       .  S
O3            C9   1.268       .  A
O3           Cd6   2.536       .  S
C4           O12   1.265       .  A
C4         C3233   1.482       .  S
C5           O10   1.271       .  A
C5            O8   1.266       .  A
C5         C3193   1.493       .  S
Cd6          O13   2.459       .  S
Cd6          O12   2.420       .  S
Cd6          O11   2.437       .  S
Cd6           O7   2.516       .  S
Cd6          O10   2.526       .  S
Cd6           O8   2.456       .  S
C9           O13   1.263       .  A
C9         C3185   1.490       .  S
O14          C17   1.266       .  A
O14         Cd19   2.498       .  S
C15          O24   1.264       .  A
C15          O20   1.264       .  A
C15        C3161   1.481       .  S
O16          C22   1.267       .  A
O16         Cd19   2.488       .  S
C17          O25   1.265       .  A
C17        C3217   1.484       .  S
C18          O23   1.266       .  A
C18          O21   1.262       .  A
C18        C3145   1.489       .  S
Cd19         O26   2.466       .  S
Cd19         O25   2.465       .  S
Cd19         O24   2.474       .  S
Cd19         O20   2.475       .  S
Cd19         O23   2.542       .  S
Cd19         O21   2.454       .  S
C22          O26   1.266       .  A
C22        C3129   1.485       .  S
O27          C30   1.268       .  A
O27         Cd32   2.502       .  S
C28          O37   1.264       .  A
C28          O33   1.269       .  A
C28        C3113   1.481       .  S
O29          C35   1.268       .  A
O29         Cd32   2.526       .  S
C30          O38   1.266       .  A
C30        C3105   1.487       .  S
C31          O36   1.268       .  A
C31          O34   1.267       .  A
C31        C3201   1.492       .  S
Cd32         O39   2.465       .  S
Cd32         O38   2.464       .  S
Cd32         O37   2.412       .  S
Cd32         O33   2.520       .  S
Cd32         O36   2.496       .  S
Cd32         O34   2.498       .  S
C35          O39   1.264       .  A
C35        C3081   1.490       .  S
O40          C43   1.269       .  A
O40         Cd45   2.522       .  S
C41          O50   1.263       .  A
C41          O46   1.269       .  A
C41        C3065   1.487       .  S
O42          C48   1.268       .  A
O42         Cd45   2.513       .  S
C43          O51   1.266       .  A
C43        C3097   1.488       .  S
C44          O49   1.270       .  A
C44          O47   1.266       .  A
C44        C3033   1.488       .  S
Cd45         O52   2.484       .  S
Cd45         O51   2.451       .  S
Cd45         O50   2.427       .  S
Cd45         O46   2.543       .  S
Cd45         O49   2.517       .  S
Cd45         O47   2.448       .  S
C48          O52   1.266       .  A
C48        C3049   1.492       .  S
O53          C56   1.266       .  A
O53         Cd58   2.510       .  S
C54          O63   1.266       .  A
C54          O59   1.267       .  A
C54        C3009   1.489       .  S
O55          C61   1.272       .  A
O55         Cd58   2.531       .  S
C56          O64   1.264       .  A
C56        C3025   1.483       .  S
C57          O62   1.270       .  A
C57          O60   1.264       .  A
C57        C3153   1.492       .  S
Cd58         O65   2.437       .  S
Cd58         O64   2.468       .  S
Cd58         O63   2.482       .  S
Cd58         O59   2.498       .  S
Cd58         O62   2.540       .  S
Cd58         O60   2.458       .  S
C61          O65   1.266       .  A
C61        C2985   1.491       .  S
O66          C69   1.270       .  A
O66         Cd71   2.501       .  S
C67          O76   1.264       .  A
C67          O72   1.270       .  A
C67        C2969   1.487       .  S
O68          C74   1.272       .  A
O68         Cd71   2.549       .  S
C69          O77   1.267       .  A
C69        C3001   1.491       .  S
C70          O75   1.270       .  A
C70          O73   1.266       .  A
C70        C3057   1.494       .  S
Cd71         O78   2.431       .  S
Cd71         O77   2.481       .  S
Cd71         O76   2.414       .  S
Cd71         O72   2.545       .  S
Cd71         O75   2.534       .  S
Cd71         O73   2.470       .  S
C74          O78   1.265       .  A
C74        C2953   1.492       .  S
O79          C82   1.272       .  A
O79         Cd84   2.433       .  S
C80          O89   1.268       .  A
C80          O85   1.271       .  A
C80        C2905   1.473       .  S
O81          C87   1.277       .  A
O81         Cd84   2.520       .  S
C82          O90   1.269       .  A
C82        C2937   1.472       .  S
C83          O88   1.277       .  A
C83          O86   1.266       .  A
C83        C2977   1.485       .  S
Cd84         O91   2.381       .  S
Cd84         O90   2.409       .  S
Cd84         O89   2.411       .  S
Cd84         O85   2.452       .  S
Cd84         O88   2.519   1_545  S
Cd84         O86   2.385   1_545  S
C87          O91   1.265       .  A
C87        C2921   1.483       .  S
O92          C95   1.270   1_545  A
O92         Cd97   2.445       .  S
C93         O102   1.268       .  A
C93          O98   1.270       .  A
C93        C2873   1.473       .  S
O94         C100   1.275       .  A
O94         Cd97   2.526   1_565  S
C95         O103   1.268       .  A
C95        C2945   1.473       .  S
C96         O101   1.275       .  A
C96          O99   1.263       .  A
C96        C2889   1.482       .  S
Cd97        O104   2.387   1_545  S
Cd97        O103   2.416   1_545  S
Cd97        O102   2.424       .  S
Cd97         O98   2.439       .  S
Cd97        O101   2.531       .  S
Cd97         O99   2.375       .  S
C100        O104   1.264       .  A
C100       C3073   1.484       .  S
O105        C108   1.266       .  A
O105       Cd110   2.492       .  S
C106        O115   1.263       .  A
C106        O111   1.264       .  A
C106       C2865   1.477       .  S
O107        C113   1.267       .  A
O107       Cd110   2.527       .  S
C108        O116   1.265       .  A
C108       C2849   1.481       .  S
C109        O114   1.267       .  A
C109        O112   1.266       .  A
C109       C3137   1.486       .  S
Cd110       O117   2.462       .  S
Cd110       O116   2.452       .  S
Cd110       O115   2.466       .  S
Cd110       O111   2.472       .  S
Cd110       O114   2.488       .  S
Cd110       O112   2.475       .  S
C113        O117   1.263       .  A
C113       C2825   1.489       .  S
O118        C121   1.267       .  A
O118       Cd123   2.500       .  S
C119        O128   1.264       .  A
C119        O124   1.269       .  A
C119       C2817   1.479       .  S
O120        C126   1.268       .  A
O120       Cd123   2.525       .  S
C121        O129   1.265       .  A
C121       C2841   1.484       .  S
C122        O127   1.270       .  A
C122        O125   1.267       .  A
C122       C2793   1.491       .  S
Cd123       O130   2.463       .  S
Cd123       O129   2.460       .  S
Cd123       O128   2.414       .  S
Cd123       O124   2.518       .  S
Cd123       O127   2.504       .  S
Cd123       O125   2.476       .  S
C126        O130   1.263       .  A
C126       C3177   1.489       .  S
O131        C134   1.266       .  A
O131       Cd136   2.507       .  S
C132        O141   1.266       .  A
C132        O137   1.266       .  A
C132       C2777   1.481       .  S
O133        C139   1.268       .  A
O133       Cd136   2.498       .  S
C134        O142   1.263       .  A
C134       C2761   1.484       .  S
C135        O140   1.266       .  A
C135        O138   1.263       .  A
C135       C2745   1.489       .  S
Cd136       O143   2.497       .  S
Cd136       O142   2.459       .  S
Cd136       O141   2.459       .  S
Cd136       O137   2.490       .  S
Cd136       O140   2.516       .  S
Cd136       O138   2.480       .  S
C139        O143   1.266       .  A
C139       C2801   1.491       .  S
O144        C147   1.265       .  A
O144       Cd149   2.476       .  S
C145        O154   1.263       .  A
C145        O150   1.266       .  A
C145       C2729   1.480       .  S
O146        C152   1.264       .  A
O146       Cd149   2.418       .  S
C147        O155   1.266       .  A
C147       C2713   1.483       .  S
C148        O153   1.269       .  A
C148        O151   1.264       .  A
C148       C2833   1.489       .  S
Cd149       O156   2.546       .  S
Cd149       O155   2.483       .  S
Cd149       O154   2.456       .  S
Cd149       O150   2.511       .  S
Cd149       O153   2.513       .  S
Cd149       O151   2.469       .  S
C152        O156   1.271       .  A
C152       C2697   1.490       .  S
O157        C160   1.268       .  A
O157       Cd162   2.494       .  S
C158        O167   1.265       .  A
C158        O163   1.269       .  A
C158       C2897   1.481       .  S
O159        C165   1.267       .  A
O159       Cd162   2.512       .  S
C160        O168   1.265       .  A
C160       C2769   1.484       .  S
C161        O166   1.268       .  A
C161        O164   1.266       .  A
C161       C2681   1.487       .  S
Cd162       O169   2.445       .  S
Cd162       O168   2.457       .  S
Cd162       O167   2.427       .  S
Cd162       O163   2.511       .  S
Cd162       O166   2.487       .  S
Cd162       O164   2.483       .  S
C165        O169   1.263       .  A
C165       C2665   1.482       .  S
O170        C173   1.266       .  A
O170       Cd175   2.515       .  S
C171        O180   1.266       .  A
C171        O176   1.267       .  A
C171       C2721   1.482       .  S
O172        C178   1.267       .  A
O172       Cd175   2.507       .  S
C173        O181   1.264       .  A
C173       C2929   1.482       .  S
C174        O179   1.268       .  A
C174        O177   1.267       .  A
C174       C2689   1.487       .  S
Cd175       O182   2.475       .  S
Cd175       O181   2.443       .  S
Cd175       O180   2.471       .  S
Cd175       O176   2.479       .  S
Cd175       O179   2.501       .  S
Cd175       O177   2.474       .  S
C178        O182   1.264       .  A
C178       C2649   1.486       .  S
O183        C186   1.269       .  A
O183       Cd188   2.465       .  S
C184        O193   1.266       .  A
C184        O189   1.269       .  A
C184       C2601   1.469       .  S
O185        C191   1.267       .  A
O185       Cd188   2.517   1_455  S
C186        O194   1.267       .  A
C186       C2633   1.472       .  S
C187        O192   1.270       .  A
C187        O190   1.261       .  A
C187       C2737   1.482       .  S
Cd188       O195   2.440   1_655  S
Cd188       O194   2.406       .  S
Cd188       O193   2.408   1_655  S
Cd188       O189   2.438   1_655  S
Cd188       O192   2.531       .  S
Cd188       O190   2.422       .  S
C191        O195   1.262       .  A
C191       C2617   1.485       .  S
O196        C199   1.267   1_655  A
O196       Cd201   2.474       .  S
C197        O206   1.264       .  A
C197        O202   1.269       .  A
C197       C2641   1.473       .  S
O198        C204   1.266       .  A
O198       Cd201   2.505   1_455  S
C199        O207   1.265       .  A
C199       C2577   1.473       .  S
C200        O205   1.266       .  A
C200        O203   1.263       .  A
C200       C2857   1.473       .  S
Cd201       O208   2.434   1_655  S
Cd201       O207   2.424   1_655  S
Cd201       O206   2.409       .  S
Cd201       O202   2.478       .  S
Cd201       O205   2.478       .  S
Cd201       O203   2.438       .  S
C204        O208   1.262       .  A
C204       C2585   1.477       .  S
O209        C212   1.267       .  A
O209       Cd214   2.509       .  S
C210        O219   1.266       .  A
C210        O215   1.269       .  A
C210       C2625   1.484       .  S
O211        C217   1.270       .  A
O211       Cd214   2.527       .  S
C212        O220   1.264       .  A
C212       C2537   1.487       .  S
C213        O218   1.266       .  A
C213        O216   1.262       .  A
C213       C2521   1.490       .  S
Cd214       O221   2.461       .  S
Cd214       O220   2.468       .  S
Cd214       O219   2.466       .  S
Cd214       O215   2.495       .  S
Cd214       O218   2.549       .  S
Cd214       O216   2.457       .  S
C217        O221   1.265       .  A
C217       C2553   1.490       .  S
O222        C225   1.268       .  A
O222       Cd227   2.500       .  S
C223        O232   1.264       .  A
C223        O228   1.270       .  A
C223       C2513   1.480       .  S
O224        C230   1.269       .  A
O224       Cd227   2.525       .  S
C225        O233   1.266       .  A
C225       C2545   1.488       .  S
C226        O231   1.269       .  A
C226        O229   1.266       .  A
C226       C2489   1.488       .  S
Cd227       O234   2.439       .  S
Cd227       O233   2.471       .  S
Cd227       O232   2.402       .  S
Cd227       O228   2.529       .  S
Cd227       O231   2.507       .  S
Cd227       O229   2.462       .  S
C230        O234   1.265       .  A
C230       C2481   1.487       .  S
O235        C238   1.264       .  A
O235       Cd240   2.421       .  S
C236        O245   1.264       .  A
C236        O241   1.269       .  A
C236       C2441   1.483       .  S
O237        C243   1.267       .  A
O237       Cd240   2.491       .  S
C238        O246   1.270       .  A
C238       C2465   1.484       .  S
C239        O244   1.268       .  A
C239        O242   1.267       .  A
C239       C2497   1.487       .  S
Cd240       O247   2.451       .  S
Cd240       O246   2.534       .  S
Cd240       O245   2.436       .  S
Cd240       O241   2.506       .  S
Cd240       O244   2.483       .  S
Cd240       O242   2.478       .  S
C243        O247   1.264       .  A
C243       C2673   1.479       .  S
O248        C251   1.267       .  A
O248       Cd253   2.496       .  S
C249        O258   1.263       .  A
C249        O254   1.267       .  A
C249       C2425   1.480       .  S
O250        C256   1.268       .  A
O250       Cd253   2.533       .  S
C251        O259   1.265       .  A
C251       C2449   1.484       .  S
C252        O257   1.270       .  A
C252        O255   1.267       .  A
C252       C2417   1.489       .  S
Cd253       O260   2.444       .  S
Cd253       O259   2.463       .  S
Cd253       O258   2.433       .  S
Cd253       O254   2.513       .  S
Cd253       O257   2.509       .  S
Cd253       O255   2.456       .  S
C256        O260   1.262       .  A
C256       C2753   1.488       .  S
O261        C264   1.263       .  A
O261       Cd266   2.491       .  S
C262        O271   1.266       .  A
C262        O267   1.266       .  A
C262       C2593   1.479       .  S
O263        C269   1.266       .  A
O263       Cd266   2.529       .  S
C264        O272   1.263       .  A
C264       C2401   1.481       .  S
C265        O270   1.267       .  A
C265        O268   1.266       .  A
C265       C2561   1.488       .  S
Cd266       O273   2.458       .  S
Cd266       O272   2.473       .  S
Cd266       O271   2.458       .  S
Cd266       O267   2.478       .  S
Cd266       O270   2.493       .  S
Cd266       O268   2.484       .  S
C269        O273   1.262       .  A
C269       C2385   1.487       .  S
O274        C277   1.268       .  A
O274       Cd279   2.494       .  S
C275        O284   1.264       .  A
C275        O280   1.270       .  A
C275       C2361   1.477       .  S
O276        C282   1.268       .  A
O276       Cd279   2.486       .  S
C277        O285   1.265       .  A
C277       C2393   1.482       .  S
C278        O283   1.268       .  A
C278        O281   1.264       .  A
C278       C2345   1.483       .  S
Cd279       O286   2.471       .  S
Cd279       O285   2.439       .  S
Cd279       O284   2.404       .  S
Cd279       O280   2.517       .  S
Cd279       O283   2.513       .  S
Cd279       O281   2.433       .  S
C282        O286   1.267       .  A
C282       C2409   1.487       .  S
O287        C290   1.270   1_565  A
O287       Cd292   2.489       .  S
C288        O297   1.266       .  A
C288        O293   1.269       .  A
C288       C2329   1.476       .  S
O289        C295   1.272       .  A
O289       Cd292   2.517   1_545  S
C290        O298   1.266       .  A
C290       C2297   1.477       .  S
C291        O296   1.271       .  A
C291        O294   1.264       .  A
C291       C2313   1.482       .  S
Cd292       O299   2.393   1_565  S
Cd292       O298   2.421   1_565  S
Cd292       O297   2.439       .  S
Cd292       O293   2.461       .  S
Cd292       O296   2.525       .  S
Cd292       O294   2.393       .  S
C295        O299   1.264       .  A
C295       C2505   1.482       .  S
O300        C303   1.269       .  A
O300       Cd305   2.450   1_565  S
C301        O310   1.268       .  A
C301        O306   1.269       .  A
C301       C2881   1.474       .  S
O302        C308   1.264       .  A
O302       Cd305   2.420       .  S
C303        O311   1.268       .  A
C303       C2337   1.475       .  S
C304        O309   1.275       .  A
C304        O307   1.263       .  A
C304       C2281   1.488       .  S
Cd305       O312   2.544       .  S
Cd305       O311   2.429   1_545  S
Cd305       O310   2.434       .  S
Cd305       O306   2.440       .  S
Cd305       O309   2.541   1_545  S
Cd305       O307   2.399   1_545  S
C308        O312   1.274       .  A
C308       C2457   1.490       .  S
O313        C316   1.268   1_655  A
O313       Cd318   2.468       .  S
C314        O323   1.267       .  A
C314        O319   1.268       .  A
C314       C2265   1.476       .  S
O315        C321   1.270       .  A
O315       Cd318   2.528   1_455  S
C316        O324   1.266       .  A
C316       C2233   1.476       .  S
C317        O322   1.268       .  A
C317        O320   1.261       .  A
C317       C3017   1.485       .  S
Cd318       O325   2.446   1_655  S
Cd318       O324   2.430   1_655  S
Cd318       O323   2.437       .  S
Cd318       O319   2.461       .  S
Cd318       O322   2.533       .  S
Cd318       O320   2.440       .  S
C321        O325   1.262       .  A
C321       C2249   1.487       .  S
O326        C329   1.270       .  A
O326       Cd331   2.455   1_455  S
C327        O336   1.267       .  A
C327        O332   1.270       .  A
C327       C2273   1.476       .  S
O328        C334   1.272       .  A
O328       Cd331   2.522       .  S
C329        O337   1.267       .  A
C329       C2569   1.471       .  S
C330        O335   1.273       .  A
C330        O333   1.264       .  A
C330       C2217   1.487       .  S
Cd331       O338   2.428       .  S
Cd331       O337   2.417   1_655  S
Cd331       O336   2.420       .  S
Cd331       O332   2.463       .  S
Cd331       O335   2.519   1_655  S
Cd331       O333   2.429   1_655  S
C334        O338   1.263       .  A
C334       C3169   1.480       .  S
O339        C342   1.266       .  A
O339       Cd344   2.487       .  S
C340        O349   1.265       .  A
C340        O345   1.265       .  A
C340       C2185   1.484       .  S
O341        C347   1.268       .  A
O341       Cd344   2.544       .  S
C342        O350   1.266       .  A
C342       C2201   1.483       .  S
C343        O348   1.270       .  A
C343        O346   1.266       .  A
C343       C2169   1.490       .  S
Cd344       O351   2.449       .  S
Cd344       O350   2.486       .  S
Cd344       O349   2.488       .  S
Cd344       O345   2.481       .  S
Cd344       O348   2.520       .  S
Cd344       O346   2.452       .  S
C347        O351   1.262       .  A
C347       C3089   1.489       .  S
O352        C355   1.268       .  A
O352       Cd357   2.504       .  S
C353        O362   1.264       .  A
C353        O358   1.268       .  A
C353       C2289   1.486       .  S
O354        C360   1.270       .  A
O354       Cd357   2.514       .  S
C355        O363   1.265       .  A
C355       C2193   1.486       .  S
C356        O361   1.268       .  A
C356        O359   1.266       .  A
C356       C2161   1.494       .  S
Cd357       O364   2.456       .  S
Cd357       O363   2.458       .  S
Cd357       O362   2.439       .  S
Cd357       O358   2.532       .  S
Cd357       O361   2.513       .  S
Cd357       O359   2.497       .  S
C360        O364   1.265       .  A
C360       C3041   1.488       .  S
O365        C368   1.268       .  A
O365       Cd370   2.532       .  S
C366        O375   1.267       .  A
C366        O371   1.269       .  A
C366       C2137   1.486       .  S
O367        C373   1.270       .  A
O367       Cd370   2.547       .  S
C368        O376   1.263       .  A
C368       C2321   1.480       .  S
C369        O374   1.269       .  A
C369        O372   1.266       .  A
C369       C2153   1.493       .  S
Cd370       O377   2.438       .  S
Cd370       O376   2.419       .  S
Cd370       O375   2.453       .  S
Cd370       O371   2.498       .  S
Cd370       O374   2.523       .  S
Cd370       O372   2.476       .  S
C373        O377   1.264       .  A
C373       C2121   1.488       .  S
O378        C381   1.266       .  A
O378       Cd383   2.506       .  S
C379        O388   1.266       .  A
C379        O384   1.268       .  A
C379       C2105   1.482       .  S
O380        C386   1.267       .  A
O380       Cd383   2.524       .  S
C381        O389   1.264       .  A
C381       C2089   1.484       .  S
C382        O387   1.268       .  A
C382        O385   1.267       .  A
C382       C2177   1.491       .  S
Cd383       O390   2.452       .  S
Cd383       O389   2.464       .  S
Cd383       O388   2.442       .  S
Cd383       O384   2.508       .  S
Cd383       O387   2.494       .  S
Cd383       O385   2.495       .  S
C386        O390   1.262       .  A
C386       C2353   1.485       .  S
O391        C394   1.267       .  A
O391       Cd396   2.491       .  S
C392        O401   1.265       .  A
C392        O397   1.267       .  A
C392       C2257   1.485       .  S
O393        C399   1.270       .  A
O393       Cd396   2.571       .  S
C394        O402   1.266       .  A
C394       C2145   1.485       .  S
C395        O400   1.271       .  A
C395        O398   1.267       .  A
C395       C2073   1.492       .  S
Cd396       O403   2.432       .  S
Cd396       O402   2.468       .  S
Cd396       O401   2.462       .  S
Cd396       O397   2.515       .  S
Cd396       O400   2.522       .  S
Cd396       O398   2.466       .  S
C399        O403   1.262       .  A
C399       C2057   1.494       .  S
O404        C407   1.266       .  A
O404       Cd409   2.502       .  S
C405        O414   1.265       .  A
C405        O410   1.268       .  A
C405       C2225   1.489       .  S
O406        C412   1.268       .  A
O406       Cd409   2.480       .  S
C407        O415   1.263       .  A
C407       C2097   1.485       .  S
C408        O413   1.265       .  A
C408        O411   1.262       .  A
C408       C2377   1.487       .  S
Cd409       O416   2.492       .  S
Cd409       O415   2.476       .  S
Cd409       O414   2.455       .  S
Cd409       O410   2.527       .  S
Cd409       O413   2.520       .  S
Cd409       O411   2.473       .  S
C412        O416   1.268       .  A
C412       C2081   1.489       .  S
O417        C420   1.271       .  A
O417       Cd422   2.461       .  S
C418        O427   1.265       .  A
C418        O423   1.270       .  A
C418       C2009   1.472       .  S
O419        C425   1.269       .  A
O419       Cd422   2.534       .  S
C420        O428   1.268       .  A
C420       C2041   1.476       .  S
C421        O426   1.273       .  A
C421        O424   1.262       .  A
C421       C2025   1.483       .  S
Cd422       O429   2.423       .  S
Cd422       O428   2.415       .  S
Cd422       O427   2.401       .  S
Cd422       O423   2.466       .  S
Cd422       O426   2.530   1_556  S
Cd422       O424   2.401   1_556  S
C425        O429   1.261       .  A
C425       C2785   1.482       .  S
O430        C433   1.270       .  A
O430       Cd435   2.485       .  S
C431        O440   1.265       .  A
C431        O436   1.269       .  A
C431       C1977   1.466       .  S
O432        C438   1.271       .  A
O432       Cd435   2.511   1_554  S
C433        O441   1.266       .  A
C433       C2049   1.476       .  S
C434        O439   1.270       .  A
C434        O437   1.264       .  A
C434       C2809   1.481       .  S
Cd435       O442   2.403   1_556  S
Cd435       O441   2.402       .  S
Cd435       O440   2.402       .  S
Cd435       O436   2.464       .  S
Cd435       O439   2.522       .  S
Cd435       O437   2.411       .  S
C438        O442   1.262       .  A
C438       C1993   1.480       .  S
O443        C446   1.268       .  A
O443       Cd448   2.506       .  S
C444        O453   1.264       .  A
C444        O449   1.269       .  A
C444       C2033   1.485       .  S
O445        C451   1.271       .  A
O445       Cd448   2.528       .  S
C446        O454   1.266       .  A
C446       C1945   1.492       .  S
C447        O452   1.268       .  A
C447        O450   1.265       .  A
C447       C1961   1.492       .  S
Cd448       O455   2.431       .  S
Cd448       O454   2.490       .  S
Cd448       O453   2.442       .  S
Cd448       O449   2.528       .  S
Cd448       O452   2.513       .  S
Cd448       O450   2.487       .  S
C451        O455   1.265       .  A
C451       C1929   1.488       .  S
O456        C459   1.264       .  A
O456       Cd461   2.419       .  S
C457        O466   1.266       .  A
C457        O462   1.270       .  A
C457       C1953   1.492       .  S
O458        C464   1.270       .  A
O458       Cd461   2.498       .  S
C459        O467   1.272       .  A
C459       C1921   1.487       .  S
C460        O465   1.269       .  A
C460        O463   1.267       .  A
C460       C1897   1.489       .  S
Cd461       O468   2.441       .  S
Cd461       O467   2.534       .  S
Cd461       O466   2.462       .  S
Cd461       O462   2.525       .  S
Cd461       O465   2.514       .  S
Cd461       O463   2.458       .  S
C464        O468   1.266       .  A
C464       C1881   1.484       .  S
O469        C472   1.268       .  A
O469       Cd474   2.486       .  S
C470        O479   1.263       .  A
C470        O475   1.267       .  A
C470       C2001   1.479       .  S
O471        C477   1.269       .  A
O471       Cd474   2.533       .  S
C472        O480   1.269       .  A
C472       C1873   1.490       .  S
C473        O478   1.271       .  A
C473        O476   1.264       .  A
C473       C1857   1.486       .  S
Cd474       O481   2.461       .  S
Cd474       O480   2.486       .  S
Cd474       O479   2.441       .  S
Cd474       O475   2.502       .  S
Cd474       O478   2.536       .  S
Cd474       O476   2.425       .  S
C477        O481   1.265       .  A
C477       C1969   1.492       .  S
O482        C485   1.268       .  A
O482       Cd487   2.531       .  S
C483        O492   1.263       .  A
C483        O488   1.267       .  A
C483       C1833   1.488       .  S
O484        C490   1.268       .  A
O484       Cd487   2.510       .  S
C485        O493   1.265       .  A
C485       C1865   1.491       .  S
C486        O491   1.267       .  A
C486        O489   1.263       .  A
C486       C1817   1.497       .  S
Cd487       O494   2.484       .  S
Cd487       O493   2.463       .  S
Cd487       O492   2.458       .  S
Cd487       O488   2.534       .  S
Cd487       O491   2.558       .  S
Cd487       O489   2.491       .  S
C490        O494   1.265       .  A
C490       C1801   1.492       .  S
O495        C498   1.271       .  A
O495       Cd500   2.528       .  S
C496        O505   1.264       .  A
C496        O501   1.272       .  A
C496       C1785   1.486       .  S
O497        C503   1.270       .  A
O497       Cd500   2.525       .  S
C498        O506   1.266       .  A
C498       C1769   1.489       .  S
C499        O504   1.271       .  A
C499        O502   1.268       .  A
C499       C1905   1.490       .  S
Cd500       O507   2.433       .  S
Cd500       O506   2.444       .  S
Cd500       O505   2.412       .  S
Cd500       O501   2.535       .  S
Cd500       O504   2.505       .  S
Cd500       O502   2.453       .  S
C503        O507   1.264       .  A
C503       C2657   1.487       .  S
O508        C511   1.264       .  A
O508       Cd513   2.420       .  S
C509        O518   1.265       .  A
C509        O514   1.267       .  A
C509       C1777   1.488       .  S
O510        C516   1.265       .  A
O510       Cd513   2.463       .  S
C511        O519   1.269       .  A
C511       C1753   1.482       .  S
C512        O517   1.267       .  A
C512        O515   1.266       .  A
C512       C1825   1.492       .  S
Cd513       O520   2.518       .  S
Cd513       O519   2.527       .  S
Cd513       O518   2.471       .  S
Cd513       O514   2.506       .  S
Cd513       O517   2.505       .  S
Cd513       O515   2.490       .  S
C516        O520   1.268       .  A
C516       C2705   1.490       .  S
O521        C524   1.269       .  A
O521       Cd526   2.454       .  S
C522        O531   1.268       .  A
C522        O527   1.270   1_556  A
C522       C1713   1.474       .  S
O523        C529   1.274       .  A
O523       Cd526   2.518       .  S
C524        O532   1.267       .  A
C524       C1737   1.472       .  S
C525        O530   1.274       .  A
C525        O528   1.264       .  A
C525       C3121   1.482       .  S
Cd526       O533   2.383       .  S
Cd526       O532   2.406       .  S
Cd526       O531   2.415   1_554  S
Cd526       O527   2.450       .  S
Cd526       O530   2.519   1_554  S
Cd526       O528   2.382   1_554  S
C529        O533   1.263       .  A
C529       C1729   1.481       .  S
O534        C537   1.268   1_554  A
O534       Cd539   2.471       .  S
C535        O544   1.267       .  A
C535        O540   1.268       .  A
C535       C1745   1.473       .  S
O536        C542   1.265       .  A
O536       Cd539   2.505       .  S
C537        O545   1.265       .  A
C537       C1985   1.470       .  S
C538        O543   1.271       .  A
C538        O541   1.261       .  A
C538       C3225   1.486       .  S
Cd539       O546   2.471       .  S
Cd539       O545   2.400   1_554  S
Cd539       O544   2.424       .  S
Cd539       O540   2.448       .  S
Cd539       O543   2.541   1_554  S
Cd539       O541   2.414   1_554  S
C542        O546   1.263       .  A
C542       C1697   1.486       .  S
O547        C550   1.270       .  A
O547       Cd552   2.443       .  S
C548        O557   1.269       .  A
C548        O553   1.270       .  A
C548       C1673   1.470       .  S
O549        C555   1.278       .  A
O549       Cd552   2.560       .  S
C550        O558   1.269       .  A
C550       C1641   1.475       .  S
C551        O556   1.278       .  A
C551        O554   1.265       .  A
C551       C1913   1.488       .  S
Cd552       O559   2.356       .  S
Cd552       O558   2.422       .  S
Cd552       O557   2.412       .  S
Cd552       O553   2.434       .  S
Cd552       O556   2.527   1_565  S
Cd552       O554   2.391   1_565  S
C555        O559   1.264       .  A
C555       C1657   1.491       .  S
O560        C563   1.268       .  A
O560       Cd565   2.463       .  S
C561        O570   1.267       .  A
C561        O566   1.269       .  A
C561       C1681   1.469       .  S
O562        C568   1.273       .  A
O562       Cd565   2.530       .  S
C563        O571   1.267       .  A
C563       C2913   1.473       .  S
C564        O569   1.273       .  A
C564        O567   1.263       .  A
C564       C1633   1.487       .  S
Cd565       O572   2.407       .  S
Cd565       O571   2.407       .  S
Cd565       O570   2.389       .  S
Cd565       O566   2.455       .  S
Cd565       O569   2.544   1_545  S
Cd565       O567   2.389   1_545  S
C568        O572   1.264       .  A
C568       C1793   1.487       .  S
O573        C576   1.269       .  A
O573       Cd578   2.549       .  S
C574        O583   1.267       .  A
C574        O579   1.269       .  A
C574       C1617   1.491       .  S
O575        C581   1.271       .  A
O575       Cd578   2.545       .  S
C576        O584   1.264       .  A
C576       C1625   1.486       .  S
C577        O582   1.270       .  A
C577        O580   1.266       .  A
C577       C1593   1.499       .  S
Cd578       O585   2.470       .  S
Cd578       O584   2.410       .  S
Cd578       O583   2.482       .  S
Cd578       O579   2.506       .  S
Cd578       O582   2.546       .  S
Cd578       O580   2.482       .  S
C581        O585   1.265       .  A
C581       C2961   1.496       .  S
O586        C589   1.268       .  A
O586       Cd591   2.519       .  S
C587        O596   1.267       .  A
C587        O592   1.268       .  A
C587       C1609   1.491       .  S
O588        C594   1.269       .  A
O588       Cd591   2.543       .  S
C589        O597   1.264       .  A
C589       C1577   1.484       .  S
C590        O595   1.271       .  A
C590        O593   1.265       .  A
C590       C2993   1.491       .  S
Cd591       O598   2.486       .  S
Cd591       O597   2.446       .  S
Cd591       O596   2.477       .  S
Cd591       O592   2.518       .  S
Cd591       O595   2.524       .  S
Cd591       O593   2.460       .  S
C594        O598   1.265       .  A
C594       C1569   1.498       .  S
O599        C602   1.266       .  A
O599       Cd604   2.504       .  S
C600        O609   1.265       .  A
C600        O605   1.269       .  A
C600       C1665   1.488       .  S
O601        C607   1.269       .  A
O601       Cd604   2.536       .  S
C602        O610   1.266       .  A
C602       C1553   1.493       .  S
C603        O608   1.268       .  A
C603        O606   1.266       .  A
C603       C1601   1.499       .  S
Cd604       O611   2.469       .  S
Cd604       O610   2.510       .  S
Cd604       O609   2.418       .  S
Cd604       O605   2.550       .  S
Cd604       O608   2.520       .  S
Cd604       O606   2.522       .  S
C607        O611   1.264       .  A
C607       C1529   1.493       .  S
O612        C615   1.266       .  A
O612       Cd617   2.504       .  S
C613        O622   1.264       .  A
C613        O618   1.264       .  A
C613       C1513   1.485       .  S
O614        C620   1.268       .  A
O614       Cd617   2.539       .  S
C615        O623   1.266       .  A
C615       C1505   1.490       .  S
C616        O621   1.266       .  A
C616        O619   1.266       .  A
C616       C1809   1.495       .  S
Cd617       O624   2.514       .  S
Cd617       O623   2.487       .  S
Cd617       O622   2.484       .  S
Cd617       O618   2.494       .  S
Cd617       O621   2.498       .  S
Cd617       O619   2.526       .  S
C620        O624   1.264       .  A
C620       C1561   1.500       .  S
O625        C628   1.269       .  A
O625       Cd630   2.541       .  S
C626        O635   1.267       .  A
C626        O631   1.269       .  A
C626       C1545   1.493       .  S
O627        C633   1.270       .  A
O627       Cd630   2.513       .  S
C628        O636   1.262       .  A
C628       C1721   1.485       .  S
C629        O634   1.269       .  A
C629        O632   1.266       .  A
C629       C1481   1.495       .  S
Cd630       O637   2.449       .  S
Cd630       O636   2.434       .  S
Cd630       O635   2.481       .  S
Cd630       O631   2.512       .  S
Cd630       O634   2.538       .  S
Cd630       O632   2.472       .  S
C633        O637   1.265       .  A
C633       C1465   1.487       .  S
O638        C641   1.265       .  A
O638       Cd643   2.515       .  S
C639        O648   1.264       .  A
C639        O644   1.264       .  A
C639       C1689   1.484       .  S
O640        C646   1.269       .  A
O640       Cd643   2.523       .  S
C641        O649   1.265       .  A
C641       C1497   1.489       .  S
C642        O647   1.267       .  A
C642        O645   1.264       .  A
C642       C1489   1.494       .  S
Cd643       O650   2.457       .  S
Cd643       O649   2.472       .  S
Cd643       O648   2.492       .  S
Cd643       O644   2.502       .  S
Cd643       O647   2.532       .  S
Cd643       O645   2.487       .  S
C646        O650   1.265       .  A
C646       C1849   1.489       .  S
O651        C654   1.271       .  A
O651       Cd656   2.459       .  S
C652        O661   1.266       .  A
C652        O657   1.271       .  A
C652       C1449   1.471       .  S
O653        C659   1.273       .  A
O653       Cd656   2.522       .  S
C654        O662   1.267       .  A
C654       C1417   1.478       .  S
C655        O660   1.274       .  A
C655        O658   1.265       .  A
C655       C1433   1.478       .  S
Cd656       O663   2.395       .  S
Cd656       O662   2.431       .  S
Cd656       O661   2.416   1_556  S
Cd656       O657   2.462   1_556  S
Cd656       O660   2.511   1_556  S
Cd656       O658   2.380   1_556  S
C659        O663   1.264       .  A
C659       C2113   1.482       .  S
O664        C667   1.268   1_556  A
O664       Cd669   2.443       .  S
C665        O674   1.267       .  A
C665        O670   1.268       .  A
C665       C1705   1.475       .  S
O666        C672   1.269       .  A
O666       Cd669   2.532       .  S
C667        O675   1.267       .  A
C667       C1457   1.473       .  S
C668        O673   1.271       .  A
C668        O671   1.260       .  A
C668       C1401   1.484       .  S
Cd669       O676   2.449       .  S
Cd669       O675   2.435   1_556  S
Cd669       O674   2.437       .  S
Cd669       O670   2.448       .  S
Cd669       O673   2.541   1_556  S
Cd669       O671   2.403   1_556  S
C672        O676   1.261       .  A
C672       C2209   1.487       .  S
O677        C680   1.271       .  A
O677       Cd682   2.452       .  S
C678        O687   1.266       .  A
C678        O683   1.270       .  A
C678       C1385   1.468       .  S
O679        C685   1.275       .  A
O679       Cd682   2.526   1_455  S
C680        O688   1.269       .  A
C680       C1353   1.472       .  S
C681        O686   1.274       .  A
C681        O684   1.264       .  A
C681       C1521   1.471       .  S
Cd682       O689   2.387   1_655  S
Cd682       O688   2.389       .  S
Cd682       O687   2.399       .  S
Cd682       O683   2.435       .  S
Cd682       O686   2.505       .  S
Cd682       O684   2.400       .  S
C685        O689   1.264       .  A
C685       C1377   1.485       .  S
O690        C693   1.270       .  A
O690       Cd695   2.438       .  S
C691        O700   1.267       .  A
C691        O696   1.270   1_455  A
C691       C2241   1.473       .  S
O692        C698   1.275       .  A
O692       Cd695   2.523   1_455  S
C693        O701   1.268       .  A
C693       C1393   1.469       .  S
C694        O699   1.275       .  A
C694        O697   1.264       .  A
C694       C1585   1.483       .  S
Cd695       O702   2.390   1_655  S
Cd695       O701   2.406       .  S
Cd695       O700   2.407   1_655  S
Cd695       O696   2.460       .  S
Cd695       O699   2.535       .  S
Cd695       O697   2.387       .  S
C698        O702   1.264       .  A
C698       C1337   1.484       .  S
O703        C706   1.268       .  A
O703       Cd708   2.504       .  S
C704        O713   1.262       .  A
C704        O709   1.269       .  A
C704       C1441   1.481       .  S
O705        C711   1.266       .  A
O705       Cd708   2.491       .  S
C706        O714   1.266       .  A
C706       C1305   1.489       .  S
C707        O712   1.270       .  A
C707        O710   1.265       .  A
C707       C1289   1.484       .  S
Cd708       O715   2.486       .  S
Cd708       O714   2.475       .  S
Cd708       O713   2.406       .  S
Cd708       O709   2.540       .  S
Cd708       O712   2.515       .  S
Cd708       O710   2.419       .  S
C711        O715   1.266       .  A
C711       C1329   1.487       .  S
O716        C719   1.271       .  A
O716       Cd721   2.533       .  S
C717        O726   1.264       .  A
C717        O722   1.271       .  A
C717       C1369   1.486       .  S
O718        C724   1.270       .  A
O718       Cd721   2.515       .  S
C719        O727   1.266       .  A
C719       C1313   1.491       .  S
C720        O725   1.270       .  A
C720        O723   1.268       .  A
C720       C1273   1.491       .  S
Cd721       O728   2.438       .  S
Cd721       O727   2.439       .  S
Cd721       O726   2.425       .  S
Cd721       O722   2.530       .  S
Cd721       O725   2.494       .  S
Cd721       O723   2.485       .  S
C724        O728   1.265       .  A
C724       C1257   1.486       .  S
O729        C732   1.268       .  A
O729       Cd734   2.479       .  S
C730        O739   1.264       .  A
C730        O735   1.266       .  A
C730       C1409   1.478       .  S
O731        C737   1.272       .  A
O731       Cd734   2.527       .  S
C732        O740   1.267       .  A
C732       C1249   1.483       .  S
C733        O738   1.270       .  A
C733        O736   1.263       .  A
C733       C1321   1.486       .  S
Cd734       O741   2.418       .  S
Cd734       O740   2.455       .  S
Cd734       O739   2.448       .  S
Cd734       O735   2.492       .  S
Cd734       O738   2.527       .  S
Cd734       O736   2.428       .  S
C737        O741   1.265       .  A
C737       C1473   1.486       .  S
O742        C745   1.270       .  A
O742       Cd747   2.499       .  S
C743        O752   1.267       .  A
C743        O748   1.268       .  A
C743       C1241   1.486       .  S
O744        C750   1.272       .  A
O744       Cd747   2.542       .  S
C745        O753   1.264       .  A
C745       C1225   1.478       .  S
C746        O751   1.272       .  A
C746        O749   1.266       .  A
C746       C1209   1.490       .  S
Cd747       O754   2.435       .  S
Cd747       O753   2.407       .  S
Cd747       O752   2.477       .  S
Cd747       O748   2.485       .  S
Cd747       O751   2.503       .  S
Cd747       O749   2.463       .  S
C750        O754   1.264       .  A
C750       C1537   1.492       .  S
O755        C758   1.268       .  A
O755       Cd760   2.495       .  S
C756        O765   1.264       .  A
C756        O761   1.269       .  A
C756       C1345   1.482       .  S
O757        C763   1.270       .  A
O757       Cd760   2.518       .  S
C758        O766   1.266       .  A
C758       C1193   1.487       .  S
C759        O764   1.269       .  A
C759        O762   1.265       .  A
C759       C2065   1.493       .  S
Cd760       O767   2.474       .  S
Cd760       O766   2.474       .  S
Cd760       O765   2.422       .  S
Cd760       O761   2.524       .  S
Cd760       O764   2.524       .  S
Cd760       O762   2.474       .  S
C763        O767   1.266       .  A
C763       C1281   1.492       .  S
O768        C771   1.268       .  A
O768       Cd773   2.507       .  S
C769        O778   1.263       .  A
C769        O774   1.266       .  A
C769       C1185   1.487       .  S
O770        C776   1.271       .  A
O770       Cd773   2.522       .  S
C771        O779   1.265       .  A
C771       C1201   1.487       .  S
C772        O777   1.268       .  A
C772        O775   1.264       .  A
C772       C1217   1.490       .  S
Cd773       O780   2.453       .  S
Cd773       O779   2.464       .  S
Cd773       O778   2.461       .  S
Cd773       O774   2.534       .  S
Cd773       O777   2.518       .  S
Cd773       O775   2.478       .  S
C776        O780   1.266       .  A
C776       C2129   1.490       .  S
O781        C784   1.271   1_556  A
O781       Cd786   2.467       .  S
C782        O791   1.267       .  A
C782        O787   1.270       .  A
C782       C1425   1.477       .  S
O783        C789   1.274       .  A
O783       Cd786   2.515       .  S
C784        O792   1.268       .  A
C784       C1161   1.474       .  S
C785        O790   1.275       .  A
C785        O788   1.264       .  A
C785       C1145   1.487       .  S
Cd786       O793   2.400       .  S
Cd786       O792   2.400   1_556  S
Cd786       O791   2.434       .  S
Cd786       O787   2.461       .  S
Cd786       O790   2.534   1_556  S
Cd786       O788   2.390   1_556  S
C789        O793   1.265       .  A
C789       C2369   1.482       .  S
O794        C797   1.266       .  A
O794       Cd799   2.458       .  S
C795        O804   1.267       .  A
C795        O800   1.267   1_554  A
C795       C1169   1.475       .  S
O796        C802   1.269       .  A
O796       Cd799   2.520       .  S
C797        O805   1.266       .  A
C797       C2017   1.472       .  S
C798        O803   1.270       .  A
C798        O801   1.263       .  A
C798       C1129   1.482       .  S
Cd799       O806   2.404       .  S
Cd799       O805   2.427       .  S
Cd799       O804   2.425   1_556  S
Cd799       O800   2.464       .  S
Cd799       O803   2.536   1_556  S
Cd799       O801   2.389   1_556  S
C802        O806   1.262       .  A
C802       C2433   1.478       .  S
O807        C810   1.270   1_565  A
O807       Cd812   2.470       .  S
C808        O817   1.266       .  A
C808        O813   1.270       .  A
C808       C1113   1.473       .  S
O809        C815   1.272       .  A
O809       Cd812   2.551       .  S
C810        O818   1.268       .  A
C810       C2305   1.478       .  S
C811        O816   1.275       .  A
C811        O814   1.263       .  A
C811       C1097   1.491       .  S
Cd812       O819   2.414       .  S
Cd812       O818   2.423   1_565  S
Cd812       O817   2.420       .  S
Cd812       O813   2.453       .  S
Cd812       O816   2.546   1_565  S
Cd812       O814   2.414   1_565  S
C815        O819   1.262       .  A
C815       C1177   1.485       .  S
O820        C823   1.266       .  A
O820       Cd825   2.432       .  S
C821        O830   1.269       .  A
C821        O826   1.269       .  A
C821       C1121   1.471       .  S
O822        C828   1.274       .  A
O822       Cd825   2.522   1_545  S
C823        O831   1.267       .  A
C823       C1649   1.473       .  S
C824        O829   1.274       .  A
C824        O827   1.262       .  A
C824       C1233   1.479       .  S
Cd825       O832   2.372   1_565  S
Cd825       O831   2.439       .  S
Cd825       O830   2.422       .  S
Cd825       O826   2.433       .  S
Cd825       O829   2.523       .  S
Cd825       O827   2.362       .  S
C828        O832   1.263       .  A
C828       C1081   1.477       .  S
O833        C836   1.268       .  A
O833       Cd838   2.450       .  S
C834        O843   1.267       .  A
C834        O839   1.268   1_655  A
C834       C1065   1.472       .  S
O835        C841   1.273       .  A
O835       Cd838   2.532       .  S
C836        O844   1.267       .  A
C836       C2609   1.471       .  S
C837        O842   1.272       .  A
C837        O840   1.263       .  A
C837       C1761   1.485       .  S
Cd838       O845   2.411       .  S
Cd838       O844   2.414       .  S
Cd838       O843   2.422   1_455  S
Cd838       O839   2.449       .  S
Cd838       O842   2.527   1_455  S
Cd838       O840   2.411   1_455  S
C841        O845   1.263       .  A
C841       C1057   1.485       .  S
O846        C849   1.269       .  A
O846       Cd851   2.464       .  S
C847        O856   1.266       .  A
C847        O852   1.267       .  A
C847       C1073   1.472       .  S
O848        C854   1.271       .  A
O848       Cd851   2.526       .  S
C849        O857   1.268   1_655  A
C849       C1361   1.472       .  S
C850        O855   1.272       .  A
C850        O853   1.262       .  A
C850       C1041   1.488       .  S
Cd851       O858   2.429       .  S
Cd851       O857   2.398   1_655  S
Cd851       O856   2.434       .  S
Cd851       O852   2.446       .  S
Cd851       O855   2.547   1_655  S
Cd851       O853   2.411   1_655  S
C854        O858   1.263       .  A
C854       C1841   1.484       .  S
O859        C862   1.271       .  A
O859       Cd864   2.549       .  S
C860        O869   1.266       .  A
C860        O865   1.270       .  A
C860       C1025   1.488       .  S
O861        C867   1.271       .  A
O861       Cd864   2.523       .  S
C862        O870   1.264       .  A
C862       C1137   1.486       .  S
C863        O868   1.270       .  A
C863        O866   1.267       .  A
C863       C1001   1.492       .  S
Cd864       O871   2.440       .  S
Cd864       O870   2.390       .  S
Cd864       O869   2.456       .  S
Cd864       O865   2.506       .  S
Cd864       O868   2.516       .  S
Cd864       O866   2.466       .  S
C867        O871   1.265       .  A
C867       C1937   1.489       .  S
O872        C875   1.269       .  A
O872       Cd877   2.487       .  S
C873        O882   1.264       .  A
C873        O878   1.270       .  A
C873       C1089   1.476       .  S
O874        C880   1.271       .  A
O874       Cd877   2.523       .  S
C875        O883   1.267       .  A
C875       C1017   1.487       .  S
C876        O881   1.271       .  A
C876        O879   1.267       .  A
C876        C985   1.489       .  S
Cd877       O884   2.419       .  S
Cd877       O883   2.466       .  S
Cd877       O882   2.414       .  S
Cd877       O878   2.506       .  S
Cd877       O881   2.510       .  S
Cd877       O879   2.448       .  S
C880        O884   1.263       .  A
C880       C1889   1.484       .  S
O885        C888   1.270       .  A
O885       Cd890   2.536       .  S
C886        O895   1.264       .  A
C886        O891   1.271       .  A
C886       C1153   1.491       .  S
O887        C893   1.269       .  A
O887       Cd890   2.514       .  S
C888        O896   1.265       .  A
C888        C969   1.492       .  S
C889        O894   1.268       .  A
C889        O892   1.267       .  A
C889       C1009   1.490       .  S
Cd890       O897   2.442       .  S
Cd890       O896   2.462       .  S
Cd890       O895   2.435       .  S
Cd890       O891   2.550       .  S
Cd890       O894   2.495       .  S
Cd890       O892   2.488       .  S
C893        O897   1.265       .  A
C893       C1297   1.486       .  S
O898        C901   1.268       .  A
O898       Cd903   2.527       .  S
C899        O908   1.267       .  A
C899        O904   1.268       .  A
C899        C977   1.490       .  S
O900        C906   1.268       .  A
O900       Cd903   2.523       .  S
C901        O909   1.264       .  A
C901       C1033   1.486       .  S
C902        O907   1.268       .  A
C902        O905   1.267       .  A
C902        C953   1.491       .  S
Cd903       O910   2.440       .  S
Cd903       O909   2.440       .  S
Cd903       O908   2.489       .  S
Cd903       O904   2.495       .  S
Cd903       O907   2.512       .  S
Cd903       O905   2.469       .  S
C906        O910   1.263       .  A
C906       C1265   1.485       .  S
O911        C914   1.270       .  A
O911       Cd916   2.542       .  S
C912        O921   1.265       .  A
C912        O917   1.269       .  A
C912        C937   1.496       .  S
O913        C919   1.267       .  A
O913       Cd916   2.525       .  S
C914        O922   1.264       .  A
C914       C1105   1.488       .  S
C915        O920   1.269       .  A
C915        O918   1.268       .  A
C915        C993   1.490       .  S
Cd916       O923   2.451       .  S
Cd916       O922   2.439       .  S
Cd916       O921   2.484       .  S
Cd916       O917   2.541       .  S
Cd916       O920   2.500       .  S
Cd916       O918   2.476       .  S
C919        O923   1.263       .  A
C919       C2473   1.487       .  S
O924        C927   1.268       .  A
O924       Cd929   2.530       .  S
C925        O934   1.264       .  A
C925        O930   1.270       .  A
C925       C1049   1.490       .  S
O926        C932   1.265       .  A
O926       Cd929   2.528       .  S
C927        O935   1.265       .  A
C927        C945   1.497       .  S
C928        O933   1.268       .  A
C928        O931   1.268       .  A
C928        C961   1.492       .  S
Cd929       O936   2.486       .  S
Cd929       O935   2.502       .  S
Cd929       O934   2.451       .  S
Cd929       O930   2.543       .  S
Cd929       O933   2.495       .  S
Cd929       O931   2.499       .  S
C932        O936   1.263       .  A
C932       C2529   1.490       .  S
C937        C938   1.408       .  A
C937        C942   1.412       .  A
C938        C939   1.400       .  A
C938        H947   1.083       .  S
C939        C940   1.402       .  A
C939        H948   1.084       .  S
C940        C946   1.412       .  A
C940        C941   1.414       .  A
C941        C943   1.406       .  A
C941        C942   1.416       .  A
C942        H949   1.084       .  S
C943        C944   1.405       .  A
C943        H950   1.083       .  S
C944        C945   1.408       .  A
C944        H951   1.083       .  S
C945        C946   1.411       .  A
C946        H952   1.084       .  S
C953        C954   1.407       .  A
C953        C958   1.410       .  A
C954        C955   1.399       .  A
C954        H963   1.083       .  S
C955        C956   1.402       .  A
C955        H964   1.083       .  S
C956        C962   1.410       .  A
C956        C957   1.414       .  A
C957        C959   1.404       .  A
C957        C958   1.413       .  A
C958        H965   1.084       .  S
C959        C960   1.402       .  A
C959        H966   1.084       .  S
C960        C961   1.407       .  A
C960        H967   1.083       .  S
C961        C962   1.409       .  A
C962        H968   1.084       .  S
C969        C970   1.408       .  A
C969        C974   1.411       .  A
C970        C971   1.398       .  A
C970        H979   1.083       .  S
C971        C972   1.401       .  A
C971        H980   1.084       .  S
C972        C978   1.409       .  A
C972        C973   1.414       .  A
C973        C975   1.404       .  A
C973        C974   1.414       .  A
C974        H981   1.084       .  S
C975        C976   1.403       .  A
C975        H982   1.083       .  S
C976        C977   1.407       .  A
C976        H983   1.083       .  S
C977        C978   1.408       .  A
C978        H984   1.084       .  S
C985        C986   1.407       .  A
C985        C990   1.410       .  A
C986        C987   1.397       .  A
C986        H995   1.083       .  S
C987        C988   1.401       .  A
C987        H996   1.084       .  S
C988        C994   1.407       .  A
C988        C989   1.414       .  A
C989        C991   1.405       .  A
C989        C990   1.413       .  A
C990        H997   1.084       .  S
C991        C992   1.404       .  A
C991        H998   1.084       .  S
C992        C993   1.408       .  A
C992        H999   1.083       .  S
C993        C994   1.407       .  A
C994       H1000   1.084       .  S
C1001      C1002   1.408       .  A
C1001      C1006   1.410       .  A
C1002      C1003   1.399       .  A
C1002      H1011   1.083       .  S
C1003      C1004   1.402       .  A
C1003      H1012   1.084       .  S
C1004      C1010   1.409       .  A
C1004      C1005   1.414       .  A
C1005      C1007   1.404       .  A
C1005      C1006   1.413       .  A
C1006      H1013   1.084       .  S
C1007      C1008   1.402       .  A
C1007      H1014   1.083       .  S
C1008      C1009   1.407       .  A
C1008      H1015   1.083       .  S
C1009      C1010   1.409       .  A
C1010      H1016   1.084       .  S
C1017      C1018   1.406       .  A
C1017      C1022   1.408       .  A
C1018      C1019   1.401       .  A
C1018      H1027   1.083       .  S
C1019      C1020   1.404       .  A
C1019      H1028   1.083       .  S
C1020      C1026   1.410       .  A
C1020      C1021   1.414       .  A
C1021      C1023   1.401       .  A
C1021      C1022   1.407       .  A
C1022      H1029   1.084       .  S
C1023      C1024   1.398       .  A
C1023      H1030   1.084       .  S
C1024      C1025   1.408       .  A
C1024      H1031   1.083       .  S
C1025      C1026   1.409       .  A
C1026      H1032   1.084       .  S
C1033      C1034   1.406       .  A
C1033      C1038   1.412       .  A
C1034      C1035   1.392       .  A
C1034      H1043   1.083       .  S
C1035      C1036   1.399       .  A
C1035      H1044   1.084       .  S
C1036      C1042   1.400       .  A
C1036      C1037   1.413       .  A
C1037      C1039   1.408       .  A
C1037      C1038   1.414       .  A
C1038      H1045   1.084       .  S
C1039      C1040   1.408       .  A
C1039      H1046   1.083       .  S
C1040      C1041   1.406       .  A
C1040      H1047   1.083       .  S
C1041      C1042   1.407       .  A
C1042      H1048   1.084       .  S
C1049      C1050   1.407       .  A
C1049      C1054   1.412       .  A
C1050      C1051   1.395       .  A
C1050      H1059   1.083       .  S
C1051      C1052   1.399       .  A
C1051      H1060   1.084       .  S
C1052      C1058   1.403       .  A
C1052      C1053   1.413       .  A
C1053      C1055   1.408       .  A
C1053      C1054   1.415       .  A
C1054      H1061   1.084       .  S
C1055      C1056   1.406       .  A
C1055      H1062   1.083       .  S
C1056      C1057   1.405       .  A
C1056      H1063   1.083       .  S
C1057      C1058   1.406       .  A
C1058      H1064   1.085       .  S
C1065      C1066   1.405       .  A
C1065      C1070   1.404       .  A
C1066      C1067   1.396       .  A
C1066      H1075   1.083   1_655  S
C1067      C1068   1.402       .  A
C1067      H1076   1.084       .  S
C1068      C1074   1.401       .  A
C1068      C1069   1.414       .  A
C1069      C1071   1.400       .  A
C1069      C1070   1.399       .  A
C1070      H1077   1.084       .  S
C1071      C1072   1.394       .  A
C1071      H1078   1.084       .  S
C1072      C1073   1.405       .  A
C1072      H1079   1.083       .  S
C1073      C1074   1.405       .  A
C1074      H1080   1.084       .  S
C1081      C1082   1.404       .  A
C1081      C1086   1.404       .  A
C1082      C1083   1.405       .  A
C1082      H1091   1.083       .  S
C1083      C1084   1.408       .  A
C1083      H1092   1.083       .  S
C1084      C1090   1.410       .  A
C1084      C1085   1.413       .  A
C1085      C1087   1.398       .  A
C1085      C1086   1.396       .  A
C1086      H1093   1.085       .  S
C1087      C1088   1.390       .  A
C1087      H1094   1.084       .  S
C1088      C1089   1.404       .  A
C1088      H1095   1.083       .  S
C1089      C1090   1.409       .  A
C1090      H1096   1.084       .  S
C1097      C1098   1.406       .  A
C1097      C1102   1.408       .  A
C1098      C1099   1.408       .  A
C1098      H1107   1.083       .  S
C1099      C1100   1.408       .  A
C1099      H1108   1.083       .  S
C1100      C1106   1.416       .  A
C1100      C1101   1.413       .  A
C1101      C1103   1.400       .  A
C1101      C1102   1.403       .  A
C1102      H1109   1.084       .  S
C1103      C1104   1.394       .  A
C1103      H1110   1.084       .  S
C1104      C1105   1.406       .  A
C1104      H1111   1.083       .  S
C1105      C1106   1.412       .  A
C1106      H1112   1.084       .  S
C1113      C1114   1.405       .  A
C1113      C1118   1.405       .  A
C1114      C1115   1.394       .  A
C1114      H1123   1.083       .  S
C1115      C1116   1.400       .  A
C1115      H1124   1.084       .  S
C1116      C1122   1.399       .  A
C1116      C1117   1.414       .  A
C1117      C1119   1.402   1_565  A
C1117      C1118   1.402       .  A
C1118      H1125   1.084       .  S
C1119      C1120   1.396       .  A
C1119      H1126   1.084       .  S
C1120      C1121   1.405   1_545  A
C1120      H1127   1.083       .  S
C1121      C1122   1.403       .  A
C1122      H1128   1.084       .  S
C1129      C1130   1.407       .  A
C1129      C1134   1.401       .  A
C1130      C1131   1.410       .  A
C1130      H1139   1.083       .  S
C1131      C1132   1.410       .  A
C1131      H1140   1.083       .  S
C1132      C1138   1.417       .  A
C1132      C1133   1.413       .  A
C1133      C1135   1.394       .  A
C1133      C1134   1.394       .  A
C1134      H1141   1.085       .  S
C1135      C1136   1.386       .  A
C1135      H1142   1.084       .  S
C1136      C1137   1.406       .  A
C1136      H1143   1.083       .  S
C1137      C1138   1.415       .  A
C1138      H1144   1.084       .  S
C1145      C1146   1.406       .  A
C1145      C1150   1.406       .  A
C1146      C1147   1.409       .  A
C1146      H1155   1.083       .  S
C1147      C1148   1.409       .  A
C1147      H1156   1.083       .  S
C1148      C1154   1.417       .  A
C1148      C1149   1.413       .  A
C1149      C1151   1.398       .  A
C1149      C1150   1.400       .  A
C1150      H1157   1.084       .  S
C1151      C1152   1.392       .  A
C1151      H1158   1.084       .  S
C1152      C1153   1.407       .  A
C1152      H1159   1.083       .  S
C1153      C1154   1.414       .  A
C1154      H1160   1.083       .  S
C1161      C1162   1.405       .  A
C1161      C1166   1.406       .  A
C1162      C1163   1.391       .  A
C1162      H1171   1.083       .  S
C1163      C1164   1.398       .  A
C1163      H1172   1.084       .  S
C1164      C1170   1.397       .  A
C1164      C1165   1.414       .  A
C1165      C1167   1.403   1_554  A
C1165      C1166   1.405       .  A
C1166      H1173   1.085   1_554  S
C1167      C1168   1.400       .  A
C1167      H1174   1.084       .  S
C1168      C1169   1.406   1_556  A
C1168      H1175   1.083       .  S
C1169      C1170   1.402       .  A
C1170      H1176   1.085       .  S
C1177      C1178   1.406       .  A
C1177      C1182   1.411       .  A
C1178      C1179   1.394       .  A
C1178      H1187   1.083       .  S
C1179      C1180   1.399       .  A
C1179      H1188   1.084       .  S
C1180      C1186   1.404       .  A
C1180      C1181   1.414       .  A
C1181      C1183   1.407       .  A
C1181      C1182   1.416       .  A
C1182      H1189   1.084       .  S
C1183      C1184   1.406       .  A
C1183      H1190   1.083       .  S
C1184      C1185   1.407       .  A
C1184      H1191   1.083       .  S
C1185      C1186   1.405       .  A
C1186      H1192   1.084       .  S
C1193      C1194   1.407       .  A
C1193      C1198   1.408       .  A
C1194      C1195   1.401       .  A
C1194      H1203   1.083       .  S
C1195      C1196   1.404       .  A
C1195      H1204   1.083       .  S
C1196      C1202   1.410       .  A
C1196      C1197   1.414       .  A
C1197      C1199   1.402       .  A
C1197      C1198   1.407       .  A
C1198      H1205   1.084       .  S
C1199      C1200   1.398       .  A
C1199      H1206   1.084       .  S
C1200      C1201   1.407       .  A
C1200      H1207   1.083       .  S
C1201      C1202   1.409       .  A
C1202      H1208   1.084       .  S
C1209      C1210   1.406       .  A
C1209      C1214   1.410       .  A
C1210      C1211   1.402       .  A
C1210      H1219   1.083       .  S
C1211      C1212   1.404       .  A
C1211      H1220   1.083       .  S
C1212      C1218   1.411       .  A
C1212      C1213   1.413       .  A
C1213      C1215   1.403       .  A
C1213      C1214   1.409       .  A
C1214      H1221   1.084       .  S
C1215      C1216   1.400       .  A
C1215      H1222   1.084       .  S
C1216      C1217   1.408       .  A
C1216      H1223   1.083       .  S
C1217      C1218   1.409       .  A
C1218      H1224   1.084       .  S
C1225      C1226   1.406       .  A
C1225      C1230   1.409       .  A
C1226      C1227   1.390       .  A
C1226      H1235   1.083       .  S
C1227      C1228   1.398       .  A
C1227      H1236   1.084       .  S
C1228      C1234   1.395       .  A
C1228      C1229   1.412       .  A
C1229      C1231   1.407       .  A
C1229      C1230   1.409       .  A
C1230      H1237   1.084       .  S
C1231      C1232   1.405       .  A
C1231      H1238   1.083       .  S
C1232      C1233   1.404       .  A
C1232      H1239   1.083       .  S
C1233      C1234   1.406       .  A
C1234      H1240   1.085       .  S
C1241      C1242   1.407       .  A
C1241      C1246   1.408       .  A
C1242      C1243   1.400       .  A
C1242      H1251   1.083       .  S
C1243      C1244   1.403       .  A
C1243      H1252   1.084       .  S
C1244      C1250   1.408       .  A
C1244      C1245   1.414       .  A
C1245      C1247   1.402       .  A
C1245      C1246   1.406       .  A
C1246      H1253   1.084       .  S
C1247      C1248   1.397       .  A
C1247      H1254   1.084       .  S
C1248      C1249   1.406       .  A
C1248      H1255   1.083       .  S
C1249      C1250   1.408       .  A
C1250      H1256   1.084       .  S
C1257      C1258   1.407       .  A
C1257      C1262   1.411       .  A
C1258      C1259   1.394       .  A
C1258      H1267   1.083       .  S
C1259      C1260   1.399       .  A
C1259      H1268   1.084       .  S
C1260      C1266   1.402       .  A
C1260      C1261   1.413       .  A
C1261      C1263   1.406       .  A
C1261      C1262   1.412       .  A
C1262      H1269   1.084       .  S
C1263      C1264   1.405       .  A
C1263      H1270   1.083       .  S
C1264      C1265   1.406       .  A
C1264      H1271   1.083       .  S
C1265      C1266   1.405       .  A
C1266      H1272   1.084       .  S
C1273      C1274   1.407       .  A
C1273      C1278   1.410       .  A
C1274      C1275   1.402       .  A
C1274      H1283   1.083       .  S
C1275      C1276   1.404       .  A
C1275      H1284   1.083       .  S
C1276      C1282   1.412       .  A
C1276      C1277   1.414       .  A
C1277      C1279   1.402       .  A
C1277      C1278   1.410       .  A
C1278      H1285   1.084       .  S
C1279      C1280   1.400       .  A
C1279      H1286   1.084       .  S
C1280      C1281   1.408       .  A
C1280      H1287   1.083       .  S
C1281      C1282   1.410       .  A
C1282      H1288   1.084       .  S
C1289      C1290   1.406       .  A
C1289      C1294   1.411       .  A
C1290      C1291   1.392       .  A
C1290      H1299   1.083       .  S
C1291      C1292   1.398       .  A
C1291      H1300   1.084       .  S
C1292      C1298   1.401       .  A
C1292      C1293   1.414       .  A
C1293      C1295   1.406       .  A
C1293      C1294   1.413       .  A
C1294      H1301   1.084       .  S
C1295      C1296   1.405       .  A
C1295      H1302   1.083       .  S
C1296      C1297   1.407       .  A
C1296      H1303   1.083       .  S
C1297      C1298   1.405       .  A
C1298      H1304   1.084       .  S
C1305      C1306   1.407       .  A
C1305      C1310   1.407       .  A
C1306      C1307   1.404       .  A
C1306      H1315   1.083       .  S
C1307      C1308   1.405       .  A
C1307      H1316   1.083       .  S
C1308      C1314   1.415       .  A
C1308      C1309   1.414       .  A
C1309      C1311   1.400       .  A
C1309      C1310   1.407       .  A
C1310      H1317   1.084       .  S
C1311      C1312   1.396       .  A
C1311      H1318   1.084       .  S
C1312      C1313   1.408       .  A
C1312      H1319   1.083       .  S
C1313      C1314   1.411       .  A
C1314      H1320   1.084       .  S
C1321      C1322   1.408       .  A
C1321      C1326   1.409       .  A
C1322      C1323   1.395       .  A
C1322      H1331   1.083       .  S
C1323      C1324   1.399       .  A
C1323      H1332   1.084       .  S
C1324      C1330   1.406       .  A
C1324      C1325   1.415       .  A
C1325      C1327   1.404       .  A
C1325      C1326   1.412       .  A
C1326      H1333   1.084       .  S
C1327      C1328   1.402       .  A
C1327      H1334   1.083       .  S
C1328      C1329   1.407       .  A
C1328      H1335   1.083       .  S
C1329      C1330   1.406       .  A
C1330      H1336   1.084       .  S
C1337      C1338   1.406       .  A
C1337      C1342   1.406       .  A
C1338      C1339   1.406       .  A
C1338      H1347   1.083       .  S
C1339      C1340   1.408       .  A
C1339      H1348   1.083       .  S
C1340      C1346   1.413       .  A
C1340      C1341   1.413       .  A
C1341      C1343   1.398       .  A
C1341      C1342   1.399       .  A
C1342      H1349   1.085       .  S
C1343      C1344   1.391       .  A
C1343      H1350   1.084       .  S
C1344      C1345   1.405       .  A
C1344      H1351   1.083       .  S
C1345      C1346   1.411       .  A
C1346      H1352   1.084       .  S
C1353      C1354   1.404   1_655  A
C1353      C1358   1.407       .  A
C1354      C1355   1.389       .  A
C1354      H1363   1.083       .  S
C1355      C1356   1.397   1_455  A
C1355      H1364   1.084       .  S
C1356      C1362   1.394       .  A
C1356      C1357   1.414       .  A
C1357      C1359   1.404       .  A
C1357      C1358   1.405       .  A
C1358      H1365   1.084       .  S
C1359      C1360   1.401       .  A
C1359      H1366   1.084       .  S
C1360      C1361   1.406       .  A
C1360      H1367   1.083       .  S
C1361      C1362   1.401       .  A
C1362      H1368   1.084   1_655  S
C1369      C1370   1.407       .  A
C1369      C1374   1.411       .  A
C1370      C1371   1.392       .  A
C1370      H1379   1.083       .  S
C1371      C1372   1.399       .  A
C1371      H1380   1.084       .  S
C1372      C1378   1.400       .  A
C1372      C1373   1.413       .  A
C1373      C1375   1.408       .  A
C1373      C1374   1.413       .  A
C1374      H1381   1.084       .  S
C1375      C1376   1.406       .  A
C1375      H1382   1.083       .  S
C1376      C1377   1.405       .  A
C1376      H1383   1.083       .  S
C1377      C1378   1.407       .  A
C1378      H1384   1.084       .  S
C1385      C1386   1.405       .  A
C1385      C1390   1.403       .  A
C1386      C1387   1.392       .  A
C1386      H1395   1.083       .  S
C1387      C1388   1.399       .  A
C1387      H1396   1.084       .  S
C1388      C1394   1.396       .  A
C1388      C1389   1.414       .  A
C1389      C1391   1.401       .  A
C1389      C1390   1.399       .  A
C1390      H1397   1.084       .  S
C1391      C1392   1.396       .  A
C1391      H1398   1.084       .  S
C1392      C1393   1.404       .  A
C1392      H1399   1.083       .  S
C1393      C1394   1.403       .  A
C1394      H1400   1.084       .  S
C1401      C1402   1.405       .  A
C1401      C1406   1.408       .  A
C1402      C1403   1.404       .  A
C1402      H1411   1.083       .  S
C1403      C1404   1.406       .  A
C1403      H1412   1.083       .  S
C1404      C1410   1.409       .  A
C1404      C1405   1.413       .  A
C1405      C1407   1.401       .  A
C1405      C1406   1.400       .  A
C1406      H1413   1.084       .  S
C1407      C1408   1.394       .  A
C1407      H1414   1.084       .  S
C1408      C1409   1.404       .  A
C1408      H1415   1.083       .  S
C1409      C1410   1.409       .  A
C1410      H1416   1.084       .  S
C1417      C1418   1.403       .  A
C1417      C1422   1.409       .  A
C1418      C1419   1.398       .  A
C1418      H1427   1.090   1_556  S
C1419      C1420   1.404       .  A
C1419      H1428   1.069   1_556  S
C1420      C1426   1.405       .  A
C1420      C1421   1.411       .  A
C1421      C1423   1.404       .  A
C1421      C1422   1.405       .  A
C1422      H1429   1.067       .  S
C1423      C1424   1.398       .  A
C1423      H1430   1.067       .  S
C1424      C1425   1.404       .  A
C1424      H1431   1.089       .  S
C1425      C1426   1.407       .  A
C1426      H1432   1.071       .  S
C1433      C1434   1.405       .  A
C1433      C1438   1.402       .  A
C1434      C1435   1.406       .  A
C1434      H1443   1.083       .  S
C1435      C1436   1.407       .  A
C1435      H1444   1.083       .  S
C1436      C1442   1.413       .  A
C1436      C1437   1.414       .  A
C1437      C1439   1.397       .  A
C1437      C1438   1.397       .  A
C1438      H1445   1.085       .  S
C1439      C1440   1.389       .  A
C1439      H1446   1.084       .  S
C1440      C1441   1.406       .  A
C1440      H1447   1.083       .  S
C1441      C1442   1.410       .  A
C1442      H1448   1.084       .  S
C1449      C1450   1.405       .  A
C1449      C1454   1.402       .  A
C1450      C1451   1.395       .  A
C1450      H1459   1.083       .  S
C1451      C1452   1.401       .  A
C1451      H1460   1.084       .  S
C1452      C1458   1.401       .  A
C1452      C1453   1.415       .  A
C1453      C1455   1.401   1_554  A
C1453      C1454   1.402       .  A
C1454      H1461   1.084   1_554  S
C1455      C1456   1.396       .  A
C1455      H1462   1.084       .  S
C1456      C1457   1.405   1_556  A
C1456      H1463   1.083       .  S
C1457      C1458   1.405       .  A
C1458      H1464   1.084       .  S
C1465      C1466   1.407       .  A
C1465      C1470   1.406       .  A
C1466      C1467   1.405       .  A
C1466      H1475   1.083       .  S
C1467      C1468   1.406       .  A
C1467      H1476   1.083       .  S
C1468      C1474   1.413       .  A
C1468      C1469   1.414       .  A
C1469      C1471   1.399       .  A
C1469      C1470   1.404       .  A
C1470      H1477   1.084       .  S
C1471      C1472   1.394       .  A
C1471      H1478   1.084       .  S
C1472      C1473   1.407       .  A
C1472      H1479   1.083       .  S
C1473      C1474   1.410       .  A
C1474      H1480   1.084       .  S
C1481      C1482   1.407       .  A
C1481      C1486   1.413       .  A
C1482      C1483   1.398       .  A
C1482      H1491   1.083       .  S
C1483      C1484   1.401       .  A
C1483      H1492   1.084       .  S
C1484      C1490   1.408       .  A
C1484      C1485   1.414       .  A
C1485      C1487   1.406       .  A
C1485      C1486   1.416       .  A
C1486      H1493   1.084       .  S
C1487      C1488   1.406       .  A
C1487      H1494   1.083       .  S
C1488      C1489   1.408       .  A
C1488      H1495   1.083       .  S
C1489      C1490   1.409       .  A
C1490      H1496   1.084       .  S
C1497      C1498   1.406       .  A
C1497      C1502   1.412       .  A
C1498      C1499   1.396       .  A
C1498      H1507   1.083       .  S
C1499      C1500   1.401       .  A
C1499      H1508   1.084       .  S
C1500      C1506   1.406       .  A
C1500      C1501   1.414       .  A
C1501      C1503   1.405       .  A
C1501      C1502   1.413       .  A
C1502      H1509   1.084       .  S
C1503      C1504   1.404       .  A
C1503      H1510   1.084       .  S
C1504      C1505   1.408       .  A
C1504      H1511   1.083       .  S
C1505      C1506   1.407       .  A
C1506      H1512   1.084       .  S
C1513      C1514   1.407       .  A
C1513      C1518   1.407       .  A
C1514      C1515   1.401       .  A
C1514      H1523   1.083       .  S
C1515      C1516   1.403       .  A
C1515      H1524   1.084       .  S
C1516      C1522   1.408       .  A
C1516      C1517   1.415       .  A
C1517      C1519   1.402       .  A
C1517      C1518   1.405       .  A
C1518      H1525   1.084       .  S
C1519      C1520   1.397       .  A
C1519      H1526   1.084       .  S
C1520      C1521   1.403       .  A
C1520      H1527   1.084       .  S
C1521      C1522   1.405       .  A
C1522      H1528   1.084       .  S
C1529      C1530   1.408       .  A
C1529      C1534   1.408       .  A
C1530      C1531   1.407       .  A
C1530      H1539   1.083       .  S
C1531      C1532   1.407       .  A
C1531      H1540   1.083       .  S
C1532      C1538   1.416       .  A
C1532      C1533   1.414       .  A
C1533      C1535   1.399       .  A
C1533      C1534   1.406       .  A
C1534      H1541   1.084       .  S
C1535      C1536   1.395       .  A
C1535      H1542   1.084       .  S
C1536      C1537   1.408       .  A
C1536      H1543   1.083       .  S
C1537      C1538   1.412       .  A
C1538      H1544   1.084       .  S
C1545      C1546   1.408       .  A
C1545      C1550   1.410       .  A
C1546      C1547   1.401       .  A
C1546      H1555   1.083       .  S
C1547      C1548   1.403       .  A
C1547      H1556   1.084       .  S
C1548      C1554   1.412       .  A
C1548      C1549   1.414       .  A
C1549      C1551   1.403       .  A
C1549      C1550   1.412       .  A
C1550      H1557   1.084       .  S
C1551      C1552   1.402       .  A
C1551      H1558   1.083       .  S
C1552      C1553   1.407       .  A
C1552      H1559   1.083       .  S
C1553      C1554   1.410       .  A
C1554      H1560   1.084       .  S
C1561      C1562   1.408       .  A
C1561      C1566   1.412       .  A
C1562      C1563   1.406       .  A
C1562      H1571   1.083       .  S
C1563      C1564   1.406       .  A
C1563      H1572   1.083       .  S
C1564      C1570   1.417       .  A
C1564      C1565   1.414       .  A
C1565      C1567   1.403       .  A
C1565      C1566   1.414       .  A
C1566      H1573   1.084       .  S
C1567      C1568   1.401       .  A
C1567      H1574   1.084       .  S
C1568      C1569   1.408       .  A
C1568      H1575   1.083       .  S
C1569      C1570   1.413       .  A
C1570      H1576   1.084       .  S
C1577      C1578   1.406       .  A
C1577      C1582   1.404       .  A
C1578      C1579   1.405       .  A
C1578      H1587   1.083       .  S
C1579      C1580   1.406       .  A
C1579      H1588   1.083       .  S
C1580      C1586   1.414       .  A
C1580      C1581   1.415       .  A
C1581      C1583   1.398       .  A
C1581      C1582   1.402       .  A
C1582      H1589   1.085       .  S
C1583      C1584   1.391       .  A
C1583      H1590   1.084       .  S
C1584      C1585   1.407       .  A
C1584      H1591   1.083       .  S
C1585      C1586   1.410       .  A
C1586      H1592   1.084       .  S
C1593      C1594   1.409       .  A
C1593      C1598   1.412       .  A
C1594      C1595   1.401       .  A
C1594      H1603   1.083       .  S
C1595      C1596   1.403       .  A
C1595      H1604   1.084       .  S
C1596      C1602   1.414       .  A
C1596      C1597   1.414       .  A
C1597      C1599   1.405       .  A
C1597      C1598   1.417       .  A
C1598      H1605   1.084       .  S
C1599      C1600   1.404       .  A
C1599      H1606   1.083       .  S
C1600      C1601   1.408       .  A
C1600      H1607   1.083       .  S
C1601      C1602   1.412       .  A
C1602      H1608   1.084       .  S
C1609      C1610   1.407       .  A
C1609      C1614   1.411       .  A
C1610      C1611   1.399       .  A
C1610      H1619   1.083       .  S
C1611      C1612   1.402       .  A
C1611      H1620   1.084       .  S
C1612      C1618   1.409       .  A
C1612      C1613   1.414       .  A
C1613      C1615   1.405       .  A
C1613      C1614   1.413       .  A
C1614      H1621   1.084       .  S
C1615      C1616   1.404       .  A
C1615      H1622   1.083       .  S
C1616      C1617   1.407       .  A
C1616      H1623   1.083       .  S
C1617      C1618   1.408       .  A
C1618      H1624   1.084       .  S
C1625      C1626   1.405       .  A
C1625      C1630   1.415       .  A
C1626      C1627   1.388       .  A
C1626      H1635   1.083       .  S
C1627      C1628   1.396       .  A
C1627      H1636   1.084       .  S
C1628      C1634   1.397       .  A
C1628      C1629   1.413       .  A
C1629      C1631   1.410       .  A
C1629      C1630   1.418       .  A
C1630      H1637   1.084       .  S
C1631      C1632   1.411       .  A
C1631      H1638   1.083       .  S
C1632      C1633   1.407       .  A
C1632      H1639   1.083       .  S
C1633      C1634   1.403       .  A
C1634      H1640   1.084       .  S
C1641      C1642   1.405       .  A
C1641      C1646   1.405       .  A
C1642      C1643   1.394       .  A
C1642      H1651   1.083       .  S
C1643      C1644   1.400       .  A
C1643      H1652   1.084       .  S
C1644      C1650   1.400       .  A
C1644      C1645   1.414       .  A
C1645      C1647   1.401       .  A
C1645      C1646   1.402       .  A
C1646      H1653   1.084       .  S
C1647      C1648   1.396       .  A
C1647      H1654   1.084       .  S
C1648      C1649   1.405       .  A
C1648      H1655   1.083       .  S
C1649      C1650   1.404       .  A
C1650      H1656   1.084       .  S
C1657      C1658   1.408       .  A
C1657      C1662   1.405       .  A
C1658      C1659   1.414       .  A
C1658      H1667   1.083       .  S
C1659      C1660   1.412       .  A
C1659      H1668   1.083       .  S
C1660      C1666   1.420       .  A
C1660      C1661   1.412       .  A
C1661      C1663   1.396       .  A
C1661      C1662   1.395       .  A
C1662      H1669   1.084       .  S
C1663      C1664   1.387       .  A
C1663      H1670   1.084       .  S
C1664      C1665   1.405       .  A
C1664      H1671   1.083       .  S
C1665      C1666   1.417       .  A
C1666      H1672   1.084       .  S
C1673      C1674   1.404       .  A
C1673      C1678   1.406       .  A
C1674      C1675   1.391       .  A
C1674      H1683   1.083       .  S
C1675      C1676   1.399       .  A
C1675      H1684   1.084       .  S
C1676      C1682   1.394       .  A
C1676      C1677   1.413       .  A
C1677      C1679   1.403   1_565  A
C1677      C1678   1.401       .  A
C1678      H1685   1.084       .  S
C1679      C1680   1.398       .  A
C1679      H1686   1.084       .  S
C1680      C1681   1.404       .  A
C1680      H1687   1.083       .  S
C1681      C1682   1.402   1_545  A
C1682      H1688   1.084       .  S
C1689      C1690   1.406       .  A
C1689      C1694   1.407       .  A
C1690      C1691   1.401       .  A
C1690      H1699   1.083       .  S
C1691      C1692   1.404       .  A
C1691      H1700   1.084       .  S
C1692      C1698   1.410       .  A
C1692      C1693   1.414       .  A
C1693      C1695   1.401       .  A
C1693      C1694   1.407       .  A
C1694      H1701   1.084       .  S
C1695      C1696   1.398       .  A
C1695      H1702   1.084       .  S
C1696      C1697   1.407       .  A
C1696      H1703   1.083       .  S
C1697      C1698   1.409       .  A
C1698      H1704   1.084       .  S
C1705      C1706   1.405       .  A
C1705      C1710   1.406       .  A
C1706      C1707   1.394       .  A
C1706      H1715   1.083       .  S
C1707      C1708   1.400       .  A
C1707      H1716   1.084       .  S
C1708      C1714   1.399       .  A
C1708      C1709   1.413       .  A
C1709      C1711   1.403       .  A
C1709      C1710   1.403       .  A
C1710      H1717   1.084       .  S
C1711      C1712   1.398       .  A
C1711      H1718   1.084       .  S
C1712      C1713   1.405       .  A
C1712      H1719   1.083   1_556  S
C1713      C1714   1.404       .  A
C1714      H1720   1.084       .  S
C1721      C1722   1.407       .  A
C1721      C1726   1.410       .  A
C1722      C1723   1.392       .  A
C1722      H1731   1.083       .  S
C1723      C1724   1.398       .  A
C1723      H1732   1.084       .  S
C1724      C1730   1.399       .  A
C1724      C1725   1.413       .  A
C1725      C1727   1.407       .  A
C1725      C1726   1.413       .  A
C1726      H1733   1.084       .  S
C1727      C1728   1.405       .  A
C1727      H1734   1.083       .  S
C1728      C1729   1.405       .  A
C1728      H1735   1.083       .  S
C1729      C1730   1.406       .  A
C1730      H1736   1.085       .  S
C1737      C1738   1.404       .  A
C1737      C1742   1.403       .  A
C1738      C1739   1.398       .  A
C1738      H1747   1.083       .  S
C1739      C1740   1.403       .  A
C1739      H1748   1.084       .  S
C1740      C1746   1.402       .  A
C1740      C1741   1.413       .  A
C1741      C1743   1.400       .  A
C1741      C1742   1.397       .  A
C1742      H1749   1.084       .  S
C1743      C1744   1.393       .  A
C1743      H1750   1.084       .  S
C1744      C1745   1.404       .  A
C1744      H1751   1.083       .  S
C1745      C1746   1.406       .  A
C1746      H1752   1.084       .  S
C1753      C1754   1.405       .  A
C1753      C1758   1.411       .  A
C1754      C1755   1.391       .  A
C1754      H1763   1.083       .  S
C1755      C1756   1.398       .  A
C1755      H1764   1.084       .  S
C1756      C1762   1.400       .  A
C1756      C1757   1.414       .  A
C1757      C1759   1.407       .  A
C1757      C1758   1.414       .  A
C1758      H1765   1.084       .  S
C1759      C1760   1.406       .  A
C1759      H1766   1.083       .  S
C1760      C1761   1.406       .  A
C1760      H1767   1.083       .  S
C1761      C1762   1.406       .  A
C1762      H1768   1.084       .  S
C1769      C1770   1.407       .  A
C1769      C1774   1.411       .  A
C1770      C1771   1.396       .  A
C1770      H1779   1.083       .  S
C1771      C1772   1.400       .  A
C1771      H1780   1.084       .  S
C1772      C1778   1.406       .  A
C1772      C1773   1.414       .  A
C1773      C1775   1.405       .  A
C1773      C1774   1.414       .  A
C1774      H1781   1.084       .  S
C1775      C1776   1.404       .  A
C1775      H1782   1.083       .  S
C1776      C1777   1.407       .  A
C1776      H1783   1.083       .  S
C1777      C1778   1.406       .  A
C1778      H1784   1.084       .  S
C1785      C1786   1.407       .  A
C1785      C1790   1.412       .  A
C1786      C1787   1.391       .  A
C1786      H1795   1.083       .  S
C1787      C1788   1.398       .  A
C1787      H1796   1.084       .  S
C1788      C1794   1.400       .  A
C1788      C1789   1.413       .  A
C1789      C1791   1.408       .  A
C1789      C1790   1.415       .  A
C1790      H1797   1.084       .  S
C1791      C1792   1.407       .  A
C1791      H1798   1.083       .  S
C1792      C1793   1.406       .  A
C1792      H1799   1.083       .  S
C1793      C1794   1.406       .  A
C1794      H1800   1.084       .  S
C1801      C1802   1.408       .  A
C1801      C1806   1.409       .  A
C1802      C1803   1.402       .  A
C1802      H1811   1.083       .  S
C1803      C1804   1.404       .  A
C1803      H1812   1.084       .  S
C1804      C1810   1.414       .  A
C1804      C1805   1.414       .  A
C1805      C1807   1.402       .  A
C1805      C1806   1.411       .  A
C1806      H1813   1.084       .  S
C1807      C1808   1.400       .  A
C1807      H1814   1.084       .  S
C1808      C1809   1.407       .  A
C1808      H1815   1.083       .  S
C1809      C1810   1.412       .  A
C1810      H1816   1.084       .  S
C1817      C1818   1.408       .  A
C1817      C1822   1.413       .  A
C1818      C1819   1.399       .  A
C1818      H1827   1.083       .  S
C1819      C1820   1.401       .  A
C1819      H1828   1.084       .  S
C1820      C1826   1.410       .  A
C1820      C1821   1.414       .  A
C1821      C1823   1.405       .  A
C1821      C1822   1.416       .  A
C1822      H1829   1.084       .  S
C1823      C1824   1.404       .  A
C1823      H1830   1.083       .  S
C1824      C1825   1.407       .  A
C1824      H1831   1.083       .  S
C1825      C1826   1.409       .  A
C1826      H1832   1.084       .  S
C1833      C1834   1.407       .  A
C1833      C1838   1.411       .  A
C1834      C1835   1.396       .  A
C1834      H1843   1.083       .  S
C1835      C1836   1.400       .  A
C1835      H1844   1.084       .  S
C1836      C1842   1.404       .  A
C1836      C1837   1.414       .  A
C1837      C1839   1.406       .  A
C1837      C1838   1.413       .  A
C1838      H1845   1.084       .  S
C1839      C1840   1.404       .  A
C1839      H1846   1.083       .  S
C1840      C1841   1.405       .  A
C1840      H1847   1.083       .  S
C1841      C1842   1.407       .  A
C1842      H1848   1.085       .  S
C1849      C1850   1.407       .  A
C1849      C1854   1.406       .  A
C1850      C1851   1.406       .  A
C1850      H1859   1.083       .  S
C1851      C1852   1.406       .  A
C1851      H1860   1.083       .  S
C1852      C1858   1.415       .  A
C1852      C1853   1.414       .  A
C1853      C1855   1.399       .  A
C1853      C1854   1.404       .  A
C1854      H1861   1.084       .  S
C1855      C1856   1.393       .  A
C1855      H1862   1.084       .  S
C1856      C1857   1.406       .  A
C1856      H1863   1.083       .  S
C1857      C1858   1.411       .  A
C1858      H1864   1.084       .  S
C1865      C1866   1.407       .  A
C1865      C1870   1.411       .  A
C1866      C1867   1.397       .  A
C1866      H1875   1.083       .  S
C1867      C1868   1.400       .  A
C1867      H1876   1.084       .  S
C1868      C1874   1.408       .  A
C1868      C1869   1.414       .  A
C1869      C1871   1.405       .  A
C1869      C1870   1.414       .  A
C1870      H1877   1.084       .  S
C1871      C1872   1.403       .  A
C1871      H1878   1.083       .  S
C1872      C1873   1.408       .  A
C1872      H1879   1.083       .  S
C1873      C1874   1.407       .  A
C1874      H1880   1.084       .  S
C1881      C1882   1.406       .  A
C1881      C1886   1.406       .  A
C1882      C1883   1.403       .  A
C1882      H1891   1.083       .  S
C1883      C1884   1.405       .  A
C1883      H1892   1.083       .  S
C1884      C1890   1.411       .  A
C1884      C1885   1.414       .  A
C1885      C1887   1.399       .  A
C1885      C1886   1.403       .  A
C1886      H1893   1.084       .  S
C1887      C1888   1.393       .  A
C1887      H1894   1.084       .  S
C1888      C1889   1.407       .  A
C1888      H1895   1.083       .  S
C1889      C1890   1.409       .  A
C1890      H1896   1.084       .  S
C1897      C1898   1.406       .  A
C1897      C1902   1.412       .  A
C1898      C1899   1.396       .  A
C1898      H1907   1.083       .  S
C1899      C1900   1.400       .  A
C1899      H1908   1.084       .  S
C1900      C1906   1.405       .  A
C1900      C1901   1.413       .  A
C1901      C1903   1.406       .  A
C1901      C1902   1.413       .  A
C1902      H1909   1.084       .  S
C1903      C1904   1.405       .  A
C1903      H1910   1.083       .  S
C1904      C1905   1.407       .  A
C1904      H1911   1.083       .  S
C1905      C1906   1.407       .  A
C1906      H1912   1.084       .  S
C1913      C1914   1.406       .  A
C1913      C1918   1.408       .  A
C1914      C1915   1.407       .  A
C1914      H1923   1.083       .  S
C1915      C1916   1.408       .  A
C1915      H1924   1.083       .  S
C1916      C1922   1.415       .  A
C1916      C1917   1.413       .  A
C1917      C1919   1.399       .  A
C1917      C1918   1.401       .  A
C1918      H1925   1.084       .  S
C1919      C1920   1.392       .  A
C1919      H1926   1.084       .  S
C1920      C1921   1.407       .  A
C1920      H1927   1.083       .  S
C1921      C1922   1.412       .  A
C1922      H1928   1.084       .  S
C1929      C1930   1.407       .  A
C1929      C1934   1.411       .  A
C1930      C1931   1.394       .  A
C1930      H1939   1.083       .  S
C1931      C1932   1.399       .  A
C1931      H1940   1.084       .  S
C1932      C1938   1.403       .  A
C1932      C1933   1.413       .  A
C1933      C1935   1.407       .  A
C1933      C1934   1.414       .  A
C1934      H1941   1.084       .  S
C1935      C1936   1.406       .  A
C1935      H1942   1.083       .  S
C1936      C1937   1.407       .  A
C1936      H1943   1.083       .  S
C1937      C1938   1.407       .  A
C1938      H1944   1.084       .  S
C1945      C1946   1.407       .  A
C1945      C1950   1.409       .  A
C1946      C1947   1.403       .  A
C1946      H1955   1.083       .  S
C1947      C1948   1.404       .  A
C1947      H1956   1.083       .  S
C1948      C1954   1.413       .  A
C1948      C1949   1.414       .  A
C1949      C1951   1.402       .  A
C1949      C1950   1.410       .  A
C1950      H1957   1.084       .  S
C1951      C1952   1.399       .  A
C1951      H1958   1.084       .  S
C1952      C1953   1.408       .  A
C1952      H1959   1.083       .  S
C1953      C1954   1.410       .  A
C1954      H1960   1.084       .  S
C1961      C1962   1.407       .  A
C1961      C1966   1.408       .  A
C1962      C1963   1.404       .  A
C1962      H1971   1.083       .  S
C1963      C1964   1.405       .  A
C1963      H1972   1.083       .  S
C1964      C1970   1.414       .  A
C1964      C1965   1.414       .  A
C1965      C1967   1.401       .  A
C1965      C1966   1.408       .  A
C1966      H1973   1.084       .  S
C1967      C1968   1.398       .  A
C1967      H1974   1.084       .  S
C1968      C1969   1.407       .  A
C1968      H1975   1.083       .  S
C1969      C1970   1.411       .  A
C1970      H1976   1.084       .  S
C1977      C1978   1.403       .  A
C1977      C1982   1.404       .  A
C1978      C1979   1.391       .  A
C1978      H1987   1.083       .  S
C1979      C1980   1.399       .  A
C1979      H1988   1.084       .  S
C1980      C1986   1.395       .  A
C1980      C1981   1.414       .  A
C1981      C1983   1.404   1_556  A
C1981      C1982   1.403       .  A
C1982      H1989   1.084       .  S
C1983      C1984   1.399       .  A
C1983      H1990   1.083       .  S
C1984      C1985   1.404   1_554  A
C1984      H1991   1.083       .  S
C1985      C1986   1.402       .  A
C1986      H1992   1.085       .  S
C1993      C1994   1.407       .  A
C1993      C1998   1.408       .  A
C1994      C1995   1.392       .  A
C1994      H2003   1.083       .  S
C1995      C1996   1.398       .  A
C1995      H2004   1.084       .  S
C1996      C2002   1.400       .  A
C1996      C1997   1.414       .  A
C1997      C1999   1.405       .  A
C1997      C1998   1.409       .  A
C1998      H2005   1.084       .  S
C1999      C2000   1.402       .  A
C1999      H2006   1.083       .  S
C2000      C2001   1.405       .  A
C2000      H2007   1.083       .  S
C2001      C2002   1.404       .  A
C2002      H2008   1.085       .  S
C2009      C2010   1.405       .  A
C2009      C2014   1.405       .  A
C2010      C2011   1.391       .  A
C2010      H2019   1.083       .  S
C2011      C2012   1.398       .  A
C2011      H2020   1.084       .  S
C2012      C2018   1.397       .  A
C2012      C2013   1.414       .  A
C2013      C2015   1.403       .  A
C2013      C2014   1.404       .  A
C2014      H2021   1.084       .  S
C2015      C2016   1.399       .  A
C2015      H2022   1.084       .  S
C2016      C2017   1.405       .  A
C2016      H2023   1.083       .  S
C2017      C2018   1.402       .  A
C2018      H2024   1.084       .  S
C2025      C2026   1.405       .  A
C2025      C2030   1.407       .  A
C2026      C2027   1.405       .  A
C2026      H2035   1.083       .  S
C2027      C2028   1.407       .  A
C2027      H2036   1.083       .  S
C2028      C2034   1.413       .  A
C2028      C2029   1.413       .  A
C2029      C2031   1.400       .  A
C2029      C2030   1.402       .  A
C2030      H2037   1.085       .  S
C2031      C2032   1.394       .  A
C2031      H2038   1.084       .  S
C2032      C2033   1.406       .  A
C2032      H2039   1.083       .  S
C2033      C2034   1.410       .  A
C2034      H2040   1.084       .  S
C2041      C2042   1.405   1_556  A
C2041      C2046   1.408       .  A
C2042      C2043   1.392       .  A
C2042      H2051   1.083       .  S
C2043      C2044   1.399       .  A
C2043      H2052   1.084       .  S
C2044      C2050   1.397       .  A
C2044      C2045   1.413   1_554  A
C2045      C2047   1.405       .  A
C2045      C2046   1.406       .  A
C2046      H2053   1.084       .  S
C2047      C2048   1.401       .  A
C2047      H2054   1.083       .  S
C2048      C2049   1.405       .  A
C2048      H2055   1.083       .  S
C2049      C2050   1.404   1_556  A
C2050      H2056   1.084       .  S
C2057      C2058   1.408       .  A
C2057      C2062   1.413       .  A
C2058      C2059   1.394       .  A
C2058      H2067   1.083       .  S
C2059      C2060   1.398       .  A
C2059      H2068   1.084       .  S
C2060      C2066   1.407       .  A
C2060      C2061   1.414       .  A
C2061      C2063   1.406       .  A
C2061      C2062   1.418       .  A
C2062      H2069   1.084       .  S
C2063      C2064   1.407       .  A
C2063      H2070   1.083       .  S
C2064      C2065   1.407       .  A
C2064      H2071   1.083       .  S
C2065      C2066   1.407       .  A
C2066      H2072   1.084       .  S
C2073      C2074   1.408       .  A
C2073      C2078   1.409       .  A
C2074      C2075   1.400       .  A
C2074      H2083   1.083       .  S
C2075      C2076   1.402       .  A
C2075      H2084   1.084       .  S
C2076      C2082   1.410       .  A
C2076      C2077   1.414       .  A
C2077      C2079   1.403       .  A
C2077      C2078   1.412       .  A
C2078      H2085   1.084       .  S
C2079      C2080   1.401       .  A
C2079      H2086   1.083       .  S
C2080      C2081   1.407       .  A
C2080      H2087   1.083       .  S
C2081      C2082   1.409       .  A
C2082      H2088   1.084       .  S
C2089      C2090   1.406       .  A
C2089      C2094   1.408       .  A
C2090      C2091   1.397       .  A
C2090      H2099   1.083       .  S
C2091      C2092   1.402       .  A
C2091      H2100   1.084       .  S
C2092      C2098   1.406       .  A
C2092      C2093   1.414       .  A
C2093      C2095   1.404       .  A
C2093      C2094   1.409       .  A
C2094      H2101   1.084       .  S
C2095      C2096   1.401       .  A
C2095      H2102   1.083       .  S
C2096      C2097   1.406       .  A
C2096      H2103   1.083       .  S
C2097      C2098   1.407       .  A
C2098      H2104   1.084       .  S
C2105      C2106   1.407       .  A
C2105      C2110   1.403       .  A
C2106      C2107   1.405       .  A
C2106      H2115   1.083       .  S
C2107      C2108   1.406       .  A
C2107      H2116   1.083       .  S
C2108      C2114   1.412       .  A
C2108      C2109   1.414       .  A
C2109      C2111   1.398       .  A
C2109      C2110   1.401       .  A
C2110      H2117   1.084       .  S
C2111      C2112   1.391       .  A
C2111      H2118   1.084       .  S
C2112      C2113   1.407       .  A
C2112      H2119   1.083       .  S
C2113      C2114   1.409       .  A
C2114      H2120   1.084       .  S
C2121      C2122   1.406       .  A
C2121      C2126   1.412       .  A
C2122      C2123   1.394       .  A
C2122      H2131   1.083       .  S
C2123      C2124   1.399       .  A
C2123      H2132   1.084       .  S
C2124      C2130   1.405       .  A
C2124      C2125   1.414       .  A
C2125      C2127   1.407       .  A
C2125      C2126   1.416       .  A
C2126      H2133   1.084       .  S
C2127      C2128   1.406       .  A
C2127      H2134   1.083       .  S
C2128      C2129   1.407       .  A
C2128      H2135   1.083       .  S
C2129      C2130   1.407       .  A
C2130      H2136   1.084       .  S
C2137      C2138   1.406       .  A
C2137      C2142   1.410       .  A
C2138      C2139   1.396       .  A
C2138      H2147   1.083       .  S
C2139      C2140   1.401       .  A
C2139      H2148   1.084       .  S
C2140      C2146   1.405       .  A
C2140      C2141   1.414       .  A
C2141      C2143   1.404       .  A
C2141      C2142   1.410       .  A
C2142      H2149   1.084       .  S
C2143      C2144   1.402       .  A
C2143      H2150   1.083       .  S
C2144      C2145   1.406       .  A
C2144      H2151   1.083       .  S
C2145      C2146   1.406       .  A
C2146      H2152   1.084       .  S
C2153      C2154   1.408       .  A
C2153      C2158   1.410       .  A
C2154      C2155   1.400       .  A
C2154      H2163   1.083       .  S
C2155      C2156   1.402       .  A
C2155      H2164   1.084       .  S
C2156      C2162   1.410       .  A
C2156      C2157   1.414       .  A
C2157      C2159   1.404       .  A
C2157      C2158   1.413       .  A
C2158      H2165   1.084       .  S
C2159      C2160   1.403       .  A
C2159      H2166   1.083       .  S
C2160      C2161   1.407       .  A
C2160      H2167   1.083       .  S
C2161      C2162   1.410       .  A
C2162      H2168   1.084       .  S
C2169      C2170   1.407       .  A
C2169      C2174   1.410       .  A
C2170      C2171   1.398       .  A
C2170      H2179   1.083       .  S
C2171      C2172   1.401       .  A
C2171      H2180   1.084       .  S
C2172      C2178   1.409       .  A
C2172      C2173   1.414       .  A
C2173      C2175   1.404       .  A
C2173      C2174   1.413       .  A
C2174      H2181   1.084       .  S
C2175      C2176   1.402       .  A
C2175      H2182   1.083       .  S
C2176      C2177   1.407       .  A
C2176      H2183   1.083       .  S
C2177      C2178   1.408       .  A
C2178      H2184   1.084       .  S
C2185      C2186   1.406       .  A
C2185      C2190   1.407       .  A
C2186      C2187   1.400       .  A
C2186      H2195   1.083       .  S
C2187      C2188   1.403       .  A
C2187      H2196   1.083       .  S
C2188      C2194   1.409       .  A
C2188      C2189   1.414       .  A
C2189      C2191   1.401       .  A
C2189      C2190   1.407       .  A
C2190      H2197   1.084       .  S
C2191      C2192   1.397       .  A
C2191      H2198   1.084       .  S
C2192      C2193   1.407       .  A
C2192      H2199   1.083       .  S
C2193      C2194   1.408       .  A
C2194      H2200   1.084       .  S
C2201      C2202   1.405       .  A
C2201      C2206   1.406       .  A
C2202      C2203   1.401       .  A
C2202      H2211   1.083       .  S
C2203      C2204   1.403       .  A
C2203      H2212   1.083       .  S
C2204      C2210   1.411       .  A
C2204      C2205   1.415       .  A
C2205      C2207   1.401       .  A
C2205      C2206   1.407       .  A
C2206      H2213   1.084       .  S
C2207      C2208   1.398       .  A
C2207      H2214   1.084       .  S
C2208      C2209   1.408       .  A
C2208      H2215   1.083       .  S
C2209      C2210   1.408       .  A
C2210      H2216   1.084       .  S
C2217      C2218   1.406       .  A
C2217      C2222   1.408       .  A
C2218      C2219   1.405       .  A
C2218      H2227   1.083       .  S
C2219      C2220   1.406       .  A
C2219      H2228   1.083       .  S
C2220      C2226   1.413       .  A
C2220      C2221   1.413       .  A
C2221      C2223   1.401       .  A
C2221      C2222   1.405       .  A
C2222      H2229   1.084       .  S
C2223      C2224   1.396       .  A
C2223      H2230   1.084       .  S
C2224      C2225   1.407       .  A
C2224      H2231   1.083       .  S
C2225      C2226   1.411       .  A
C2226      H2232   1.084       .  S
C2233      C2234   1.405   1_455  A
C2233      C2238   1.404       .  A
C2234      C2235   1.399       .  A
C2234      H2243   1.083       .  S
C2235      C2236   1.403   1_655  A
C2235      H2244   1.084       .  S
C2236      C2242   1.405       .  A
C2236      C2237   1.414       .  A
C2237      C2239   1.399       .  A
C2237      C2238   1.399       .  A
C2238      H2245   1.084       .  S
C2239      C2240   1.392       .  A
C2239      H2246   1.084       .  S
C2240      C2241   1.405       .  A
C2240      H2247   1.083       .  S
C2241      C2242   1.406       .  A
C2242      H2248   1.084   1_455  S
C2249      C2250   1.406       .  A
C2249      C2254   1.408       .  A
C2250      C2251   1.404       .  A
C2250      H2259   1.083       .  S
C2251      C2252   1.406       .  A
C2251      H2260   1.083       .  S
C2252      C2258   1.413       .  A
C2252      C2253   1.414       .  A
C2253      C2255   1.401       .  A
C2253      C2254   1.405       .  A
C2254      H2261   1.084       .  S
C2255      C2256   1.396       .  A
C2255      H2262   1.084       .  S
C2256      C2257   1.405       .  A
C2256      H2263   1.083       .  S
C2257      C2258   1.410       .  A
C2258      H2264   1.084       .  S
C2265      C2266   1.405       .  A
C2265      C2270   1.404       .  A
C2266      C2267   1.398       .  A
C2266      H2275   1.083       .  S
C2267      C2268   1.402       .  A
C2267      H2276   1.084       .  S
C2268      C2274   1.404       .  A
C2268      C2269   1.414       .  A
C2269      C2271   1.400       .  A
C2269      C2270   1.400       .  A
C2270      H2277   1.084       .  S
C2271      C2272   1.394       .  A
C2271      H2278   1.084       .  S
C2272      C2273   1.406       .  A
C2272      H2279   1.083       .  S
C2273      C2274   1.406       .  A
C2274      H2280   1.084       .  S
C2281      C2282   1.406       .  A
C2281      C2286   1.407       .  A
C2282      C2283   1.408       .  A
C2282      H2291   1.083       .  S
C2283      C2284   1.408       .  A
C2283      H2292   1.083       .  S
C2284      C2290   1.415       .  A
C2284      C2285   1.413       .  A
C2285      C2287   1.399       .  A
C2285      C2286   1.401       .  A
C2286      H2293   1.084       .  S
C2287      C2288   1.393       .  A
C2287      H2294   1.084       .  S
C2288      C2289   1.406       .  A
C2288      H2295   1.083       .  S
C2289      C2290   1.412       .  A
C2290      H2296   1.084       .  S
C2297      C2298   1.405       .  A
C2297      C2302   1.407       .  A
C2298      C2299   1.393       .  A
C2298      H2307   1.083       .  S
C2299      C2300   1.399       .  A
C2299      H2308   1.084       .  S
C2300      C2306   1.400       .  A
C2300      C2301   1.414       .  A
C2301      C2303   1.404   1_545  A
C2301      C2302   1.407       .  A
C2302      H2309   1.084   1_545  S
C2303      C2304   1.401       .  A
C2303      H2310   1.083       .  S
C2304      C2305   1.406   1_565  A
C2304      H2311   1.083       .  S
C2305      C2306   1.404       .  A
C2306      H2312   1.084       .  S
C2313      C2314   1.406       .  A
C2313      C2318   1.403       .  A
C2314      C2315   1.407       .  A
C2314      H2323   1.083       .  S
C2315      C2316   1.408       .  A
C2315      H2324   1.083       .  S
C2316      C2322   1.414       .  A
C2316      C2317   1.414       .  A
C2317      C2319   1.397       .  A
C2317      C2318   1.397       .  A
C2318      H2325   1.085       .  S
C2319      C2320   1.389       .  A
C2319      H2326   1.084       .  S
C2320      C2321   1.404       .  A
C2320      H2327   1.083       .  S
C2321      C2322   1.412       .  A
C2322      H2328   1.084       .  S
C2329      C2330   1.406       .  A
C2329      C2334   1.405       .  A
C2330      C2331   1.396       .  A
C2330      H2339   1.083       .  S
C2331      C2332   1.401       .  A
C2331      H2340   1.084       .  S
C2332      C2338   1.401       .  A
C2332      C2333   1.414       .  A
C2333      C2335   1.402       .  A
C2333      C2334   1.402       .  A
C2334      H2341   1.084       .  S
C2335      C2336   1.397       .  A
C2335      H2342   1.084       .  S
C2336      C2337   1.405       .  A
C2336      H2343   1.083   1_565  S
C2337      C2338   1.405       .  A
C2338      H2344   1.084       .  S
C2345      C2346   1.406       .  A
C2345      C2350   1.410       .  A
C2346      C2347   1.393       .  A
C2346      H2355   1.083       .  S
C2347      C2348   1.399       .  A
C2347      H2356   1.084       .  S
C2348      C2354   1.402       .  A
C2348      C2349   1.414       .  A
C2349      C2351   1.406       .  A
C2349      C2350   1.411       .  A
C2350      H2357   1.084       .  S
C2351      C2352   1.404       .  A
C2351      H2358   1.083       .  S
C2352      C2353   1.407       .  A
C2352      H2359   1.083       .  S
C2353      C2354   1.405       .  A
C2354      H2360   1.084       .  S
C2361      C2362   1.404       .  A
C2361      C2366   1.409       .  A
C2362      C2363   1.390       .  A
C2362      H2371   1.084       .  S
C2363      C2364   1.398       .  A
C2363      H2372   1.084       .  S
C2364      C2370   1.399       .  A
C2364      C2365   1.414       .  A
C2365      C2367   1.406       .  A
C2365      C2366   1.412       .  A
C2366      H2373   1.084       .  S
C2367      C2368   1.405       .  A
C2367      H2374   1.083       .  S
C2368      C2369   1.405       .  A
C2368      H2375   1.083       .  S
C2369      C2370   1.405       .  A
C2370      H2376   1.085       .  S
C2377      C2378   1.407       .  A
C2377      C2382   1.406       .  A
C2378      C2379   1.404       .  A
C2378      H2387   1.083       .  S
C2379      C2380   1.405       .  A
C2379      H2388   1.083       .  S
C2380      C2386   1.412       .  A
C2380      C2381   1.414       .  A
C2381      C2383   1.400       .  A
C2381      C2382   1.404       .  A
C2382      H2389   1.084       .  S
C2383      C2384   1.395       .  A
C2383      H2390   1.084       .  S
C2384      C2385   1.407       .  A
C2384      H2391   1.083       .  S
C2385      C2386   1.410       .  A
C2386      H2392   1.084       .  S
C2393      C2394   1.406       .  A
C2393      C2398   1.408       .  A
C2394      C2395   1.395       .  A
C2394      H2403   1.083       .  S
C2395      C2396   1.400       .  A
C2395      H2404   1.084       .  S
C2396      C2402   1.403       .  A
C2396      C2397   1.414       .  A
C2397      C2399   1.403       .  A
C2397      C2398   1.408       .  A
C2398      H2405   1.084       .  S
C2399      C2400   1.401       .  A
C2399      H2406   1.084       .  S
C2400      C2401   1.406       .  A
C2400      H2407   1.083       .  S
C2401      C2402   1.405       .  A
C2402      H2408   1.084       .  S
C2409      C2410   1.407       .  A
C2409      C2414   1.407       .  A
C2410      C2411   1.402       .  A
C2410      H2419   1.083       .  S
C2411      C2412   1.404       .  A
C2411      H2420   1.083       .  S
C2412      C2418   1.412       .  A
C2412      C2413   1.414       .  A
C2413      C2415   1.401       .  A
C2413      C2414   1.407       .  A
C2414      H2421   1.084       .  S
C2415      C2416   1.397       .  A
C2415      H2422   1.084       .  S
C2416      C2417   1.407       .  A
C2416      H2423   1.083       .  S
C2417      C2418   1.410       .  A
C2418      H2424   1.084       .  S
C2425      C2426   1.405       .  A
C2425      C2430   1.410       .  A
C2426      C2427   1.392       .  A
C2426      H2435   1.083       .  S
C2427      C2428   1.399       .  A
C2427      H2436   1.084       .  S
C2428      C2434   1.398       .  A
C2428      C2429   1.413       .  A
C2429      C2431   1.407       .  A
C2429      C2430   1.410       .  A
C2430      H2437   1.084       .  S
C2431      C2432   1.404       .  A
C2431      H2438   1.083       .  S
C2432      C2433   1.405       .  A
C2432      H2439   1.083       .  S
C2433      C2434   1.404       .  A
C2434      H2440   1.085       .  S
C2441      C2442   1.407       .  A
C2441      C2446   1.408       .  A
C2442      C2443   1.395       .  A
C2442      H2451   1.083       .  S
C2443      C2444   1.400       .  A
C2443      H2452   1.084       .  S
C2444      C2450   1.404       .  A
C2444      C2445   1.414       .  A
C2445      C2447   1.404       .  A
C2445      C2446   1.409       .  A
C2446      H2453   1.084       .  S
C2447      C2448   1.402       .  A
C2447      H2454   1.084       .  S
C2448      C2449   1.406       .  A
C2448      H2455   1.083       .  S
C2449      C2450   1.406       .  A
C2450      H2456   1.084       .  S
C2457      C2458   1.407       .  A
C2457      C2462   1.406       .  A
C2458      C2459   1.408       .  A
C2458      H2467   1.083       .  S
C2459      C2460   1.408       .  A
C2459      H2468   1.083       .  S
C2460      C2466   1.416       .  A
C2460      C2461   1.414       .  A
C2461      C2463   1.399       .  A
C2461      C2462   1.402       .  A
C2462      H2469   1.084       .  S
C2463      C2464   1.392       .  A
C2463      H2470   1.084       .  S
C2464      C2465   1.405       .  A
C2464      H2471   1.083       .  S
C2465      C2466   1.412       .  A
C2466      H2472   1.084       .  S
C2473      C2474   1.407       .  A
C2473      C2478   1.405       .  A
C2474      C2475   1.406       .  A
C2474      H2483   1.083       .  S
C2475      C2476   1.407       .  A
C2475      H2484   1.083       .  S
C2476      C2482   1.414       .  A
C2476      C2477   1.414       .  A
C2477      C2479   1.399       .  A
C2477      C2478   1.402       .  A
C2478      H2485   1.084       .  S
C2479      C2480   1.393       .  A
C2479      H2486   1.084       .  S
C2480      C2481   1.406       .  A
C2480      H2487   1.083       .  S
C2481      C2482   1.411       .  A
C2482      H2488   1.084       .  S
C2489      C2490   1.407       .  A
C2489      C2494   1.409       .  A
C2490      C2491   1.398       .  A
C2490      H2499   1.083       .  S
C2491      C2492   1.401       .  A
C2491      H2500   1.084       .  S
C2492      C2498   1.407       .  A
C2492      C2493   1.414       .  A
C2493      C2495   1.404       .  A
C2493      C2494   1.410       .  A
C2494      H2501   1.084       .  S
C2495      C2496   1.401       .  A
C2495      H2502   1.083       .  S
C2496      C2497   1.407       .  A
C2496      H2503   1.083       .  S
C2497      C2498   1.407       .  A
C2498      H2504   1.084       .  S
C2505      C2506   1.406       .  A
C2505      C2510   1.404       .  A
C2506      C2507   1.407       .  A
C2506      H2515   1.083       .  S
C2507      C2508   1.408       .  A
C2507      H2516   1.083       .  S
C2508      C2514   1.414       .  A
C2508      C2509   1.414       .  A
C2509      C2511   1.397       .  A
C2509      C2510   1.397       .  A
C2510      H2517   1.085       .  S
C2511      C2512   1.388       .  A
C2511      H2518   1.084       .  S
C2512      C2513   1.405       .  A
C2512      H2519   1.083       .  S
C2513      C2514   1.411       .  A
C2514      H2520   1.084       .  S
C2521      C2522   1.406       .  A
C2521      C2526   1.412       .  A
C2522      C2523   1.395       .  A
C2522      H2531   1.083       .  S
C2523      C2524   1.400       .  A
C2523      H2532   1.084       .  S
C2524      C2530   1.406       .  A
C2524      C2525   1.414       .  A
C2525      C2527   1.406       .  A
C2525      C2526   1.416       .  A
C2526      H2533   1.084       .  S
C2527      C2528   1.406       .  A
C2527      H2534   1.083       .  S
C2528      C2529   1.407       .  A
C2528      H2535   1.083       .  S
C2529      C2530   1.406       .  A
C2530      H2536   1.084       .  S
C2537      C2538   1.407       .  A
C2537      C2542   1.409       .  A
C2538      C2539   1.397       .  A
C2538      H2547   1.083       .  S
C2539      C2540   1.401       .  A
C2539      H2548   1.084       .  S
C2540      C2546   1.406       .  A
C2540      C2541   1.414       .  A
C2541      C2543   1.404       .  A
C2541      C2542   1.410       .  A
C2542      H2549   1.084       .  S
C2543      C2544   1.402       .  A
C2543      H2550   1.083       .  S
C2544      C2545   1.407       .  A
C2544      H2551   1.083       .  S
C2545      C2546   1.408       .  A
C2546      H2552   1.084       .  S
C2553      C2554   1.408       .  A
C2553      C2558   1.410       .  A
C2554      C2555   1.398       .  A
C2554      H2563   1.083       .  S
C2555      C2556   1.401       .  A
C2555      H2564   1.084       .  S
C2556      C2562   1.408       .  A
C2556      C2557   1.414       .  A
C2557      C2559   1.404       .  A
C2557      C2558   1.412       .  A
C2558      H2565   1.084       .  S
C2559      C2560   1.402       .  A
C2559      H2566   1.083       .  S
C2560      C2561   1.406       .  A
C2560      H2567   1.083       .  S
C2561      C2562   1.408       .  A
C2562      H2568   1.084       .  S
C2569      C2570   1.405       .  A
C2569      C2574   1.404       .  A
C2570      C2571   1.394       .  A
C2570      H2579   1.083       .  S
C2571      C2572   1.400       .  A
C2571      H2580   1.084       .  S
C2572      C2578   1.399       .  A
C2572      C2573   1.414       .  A
C2573      C2575   1.403   1_455  A
C2573      C2574   1.403       .  A
C2574      H2581   1.084   1_455  S
C2575      C2576   1.398       .  A
C2575      H2582   1.084       .  S
C2576      C2577   1.405   1_655  A
C2576      H2583   1.083       .  S
C2577      C2578   1.404       .  A
C2578      H2584   1.084       .  S
C2585      C2586   1.405       .  A
C2585      C2590   1.407       .  A
C2586      C2587   1.394       .  A
C2586      H2595   1.083       .  S
C2587      C2588   1.400       .  A
C2587      H2596   1.084       .  S
C2588      C2594   1.402       .  A
C2588      C2589   1.415       .  A
C2589      C2591   1.403       .  A
C2589      C2590   1.407       .  A
C2590      H2597   1.084       .  S
C2591      C2592   1.400       .  A
C2591      H2598   1.084       .  S
C2592      C2593   1.406       .  A
C2592      H2599   1.083       .  S
C2593      C2594   1.404       .  A
C2594      H2600   1.084       .  S
C2601      C2602   1.405       .  A
C2601      C2606   1.404       .  A
C2602      C2603   1.392       .  A
C2602      H2611   1.083       .  S
C2603      C2604   1.399       .  A
C2603      H2612   1.084       .  S
C2604      C2610   1.396       .  A
C2604      C2605   1.414       .  A
C2605      C2607   1.402       .  A
C2605      C2606   1.400       .  A
C2606      H2613   1.084       .  S
C2607      C2608   1.397       .  A
C2607      H2614   1.084       .  S
C2608      C2609   1.405       .  A
C2608      H2615   1.083       .  S
C2609      C2610   1.403       .  A
C2610      H2616   1.084       .  S
C2617      C2618   1.407       .  A
C2617      C2622   1.409       .  A
C2618      C2619   1.396       .  A
C2618      H2627   1.083       .  S
C2619      C2620   1.400       .  A
C2619      H2628   1.084       .  S
C2620      C2626   1.406       .  A
C2620      C2621   1.414       .  A
C2621      C2623   1.404       .  A
C2621      C2622   1.411       .  A
C2622      H2629   1.084       .  S
C2623      C2624   1.402       .  A
C2623      H2630   1.083       .  S
C2624      C2625   1.406       .  A
C2624      H2631   1.083       .  S
C2625      C2626   1.406       .  A
C2626      H2632   1.084       .  S
C2633      C2634   1.405       .  A
C2633      C2638   1.402       .  A
C2634      C2635   1.399       .  A
C2634      H2643   1.083   1_655  S
C2635      C2636   1.403       .  A
C2635      H2644   1.083   1_655  S
C2636      C2642   1.404       .  A
C2636      C2637   1.414       .  A
C2637      C2639   1.398       .  A
C2637      C2638   1.397       .  A
C2638      H2645   1.085       .  S
C2639      C2640   1.391       .  A
C2639      H2646   1.084       .  S
C2640      C2641   1.406       .  A
C2640      H2647   1.083       .  S
C2641      C2642   1.406       .  A
C2642      H2648   1.084   1_655  S
C2649      C2650   1.406       .  A
C2649      C2654   1.407       .  A
C2650      C2651   1.403       .  A
C2650      H2659   1.083       .  S
C2651      C2652   1.404       .  A
C2651      H2660   1.083       .  S
C2652      C2658   1.412       .  A
C2652      C2653   1.414       .  A
C2653      C2655   1.400       .  A
C2653      C2654   1.406       .  A
C2654      H2661   1.084       .  S
C2655      C2656   1.395       .  A
C2655      H2662   1.084       .  S
C2656      C2657   1.407       .  A
C2656      H2663   1.083       .  S
C2657      C2658   1.409       .  A
C2658      H2664   1.084       .  S
C2665      C2666   1.406       .  A
C2665      C2670   1.408       .  A
C2666      C2667   1.395       .  A
C2666      H2675   1.083       .  S
C2667      C2668   1.400       .  A
C2667      H2676   1.084       .  S
C2668      C2674   1.402       .  A
C2668      C2669   1.414       .  A
C2669      C2671   1.404       .  A
C2669      C2670   1.409       .  A
C2670      H2677   1.084       .  S
C2671      C2672   1.401       .  A
C2671      H2678   1.083       .  S
C2672      C2673   1.405       .  A
C2672      H2679   1.083       .  S
C2673      C2674   1.404       .  A
C2674      H2680   1.084       .  S
C2681      C2682   1.406       .  A
C2681      C2686   1.409       .  A
C2682      C2683   1.400       .  A
C2682      H2691   1.083       .  S
C2683      C2684   1.403       .  A
C2683      H2692   1.084       .  S
C2684      C2690   1.410       .  A
C2684      C2685   1.414       .  A
C2685      C2687   1.403       .  A
C2685      C2686   1.408       .  A
C2686      H2693   1.084       .  S
C2687      C2688   1.399       .  A
C2687      H2694   1.084       .  S
C2688      C2689   1.406       .  A
C2688      H2695   1.083       .  S
C2689      C2690   1.409       .  A
C2690      H2696   1.084       .  S
C2697      C2698   1.407       .  A
C2697      C2702   1.412       .  A
C2698      C2699   1.392       .  A
C2698      H2707   1.083       .  S
C2699      C2700   1.398       .  A
C2699      H2708   1.084       .  S
C2700      C2706   1.404       .  A
C2700      C2701   1.414       .  A
C2701      C2703   1.407       .  A
C2701      C2702   1.416       .  A
C2702      H2709   1.084       .  S
C2703      C2704   1.407       .  A
C2703      H2710   1.083       .  S
C2704      C2705   1.408       .  A
C2704      H2711   1.083       .  S
C2705      C2706   1.405       .  A
C2706      H2712   1.084       .  S
C2713      C2714   1.406       .  A
C2713      C2718   1.407       .  A
C2714      C2715   1.399       .  A
C2714      H2723   1.083       .  S
C2715      C2716   1.403       .  A
C2715      H2724   1.084       .  S
C2716      C2722   1.406       .  A
C2716      C2717   1.414       .  A
C2717      C2719   1.403       .  A
C2717      C2718   1.406       .  A
C2718      H2725   1.084       .  S
C2719      C2720   1.398       .  A
C2719      H2726   1.084       .  S
C2720      C2721   1.405       .  A
C2720      H2727   1.083       .  S
C2721      C2722   1.407       .  A
C2722      H2728   1.084       .  S
C2729      C2730   1.405       .  A
C2729      C2734   1.404       .  A
C2730      C2731   1.403       .  A
C2730      H2739   1.083       .  S
C2731      C2732   1.405       .  A
C2731      H2740   1.083       .  S
C2732      C2738   1.411       .  A
C2732      C2733   1.414       .  A
C2733      C2735   1.399       .  A
C2733      C2734   1.403       .  A
C2734      H2741   1.085       .  S
C2735      C2736   1.394       .  A
C2735      H2742   1.084       .  S
C2736      C2737   1.406       .  A
C2736      H2743   1.083       .  S
C2737      C2738   1.408       .  A
C2738      H2744   1.084       .  S
C2745      C2746   1.407       .  A
C2745      C2750   1.407       .  A
C2746      C2747   1.404       .  A
C2746      H2755   1.083       .  S
C2747      C2748   1.405       .  A
C2747      H2756   1.083       .  S
C2748      C2754   1.413       .  A
C2748      C2749   1.414       .  A
C2749      C2751   1.400       .  A
C2749      C2750   1.406       .  A
C2750      H2757   1.084       .  S
C2751      C2752   1.396       .  A
C2751      H2758   1.084       .  S
C2752      C2753   1.407       .  A
C2752      H2759   1.083       .  S
C2753      C2754   1.410       .  A
C2754      H2760   1.084       .  S
C2761      C2762   1.406       .  A
C2761      C2766   1.409       .  A
C2762      C2763   1.396       .  A
C2762      H2771   1.083       .  S
C2763      C2764   1.401       .  A
C2763      H2772   1.084       .  S
C2764      C2770   1.404       .  A
C2764      C2765   1.414       .  A
C2765      C2767   1.404       .  A
C2765      C2766   1.409       .  A
C2766      H2773   1.084       .  S
C2767      C2768   1.402       .  A
C2767      H2774   1.083       .  S
C2768      C2769   1.406       .  A
C2768      H2775   1.083       .  S
C2769      C2770   1.407       .  A
C2770      H2776   1.084       .  S
C2777      C2778   1.406       .  A
C2777      C2782   1.404       .  A
C2778      C2779   1.402       .  A
C2778      H2787   1.083       .  S
C2779      C2780   1.405       .  A
C2779      H2788   1.083       .  S
C2780      C2786   1.411       .  A
C2780      C2781   1.415       .  A
C2781      C2783   1.399       .  A
C2781      C2782   1.403       .  A
C2782      H2789   1.084       .  S
C2783      C2784   1.394       .  A
C2783      H2790   1.084       .  S
C2784      C2785   1.406       .  A
C2784      H2791   1.083       .  S
C2785      C2786   1.409       .  A
C2786      H2792   1.084       .  S
C2793      C2794   1.408       .  A
C2793      C2798   1.409       .  A
C2794      C2795   1.401       .  A
C2794      H2803   1.083       .  S
C2795      C2796   1.403       .  A
C2795      H2804   1.084       .  S
C2796      C2802   1.411       .  A
C2796      C2797   1.414       .  A
C2797      C2799   1.403       .  A
C2797      C2798   1.411       .  A
C2798      H2805   1.084       .  S
C2799      C2800   1.401       .  A
C2799      H2806   1.083       .  S
C2800      C2801   1.406       .  A
C2800      H2807   1.083       .  S
C2801      C2802   1.411       .  A
C2802      H2808   1.084       .  S
C2809      C2810   1.406       .  A
C2809      C2814   1.403       .  A
C2810      C2811   1.406       .  A
C2810      H2819   1.083       .  S
C2811      C2812   1.407       .  A
C2811      H2820   1.083       .  S
C2812      C2818   1.412       .  A
C2812      C2813   1.414       .  A
C2813      C2815   1.398       .  A
C2813      C2814   1.399       .  A
C2814      H2821   1.085       .  S
C2815      C2816   1.391       .  A
C2815      H2822   1.084       .  S
C2816      C2817   1.404       .  A
C2816      H2823   1.083       .  S
C2817      C2818   1.410       .  A
C2818      H2824   1.084       .  S
C2825      C2826   1.407       .  A
C2825      C2830   1.410       .  A
C2826      C2827   1.397       .  A
C2826      H2835   1.083       .  S
C2827      C2828   1.401       .  A
C2827      H2836   1.084       .  S
C2828      C2834   1.407       .  A
C2828      C2829   1.414       .  A
C2829      C2831   1.405       .  A
C2829      C2830   1.412       .  A
C2830      H2837   1.084       .  S
C2831      C2832   1.403       .  A
C2831      H2838   1.083       .  S
C2832      C2833   1.406       .  A
C2832      H2839   1.083       .  S
C2833      C2834   1.408       .  A
C2834      H2840   1.084       .  S
C2841      C2842   1.406       .  A
C2841      C2846   1.409       .  A
C2842      C2843   1.395       .  A
C2842      H2851   1.083       .  S
C2843      C2844   1.400       .  A
C2843      H2852   1.084       .  S
C2844      C2850   1.402       .  A
C2844      C2845   1.413       .  A
C2845      C2847   1.405       .  A
C2845      C2846   1.409       .  A
C2846      H2853   1.084       .  S
C2847      C2848   1.402       .  A
C2847      H2854   1.084       .  S
C2848      C2849   1.406       .  A
C2848      H2855   1.083       .  S
C2849      C2850   1.405       .  A
C2850      H2856   1.084       .  S
C2857      C2858   1.405       .  A
C2857      C2862   1.404       .  A
C2858      C2859   1.398       .  A
C2858      H2867   1.083       .  S
C2859      C2860   1.403       .  A
C2859      H2868   1.084       .  S
C2860      C2866   1.403       .  A
C2860      C2861   1.414       .  A
C2861      C2863   1.401       .  A
C2861      C2862   1.402       .  A
C2862      H2869   1.084       .  S
C2863      C2864   1.396       .  A
C2863      H2870   1.084       .  S
C2864      C2865   1.406       .  A
C2864      H2871   1.083       .  S
C2865      C2866   1.406       .  A
C2866      H2872   1.084       .  S
C2873      C2874   1.405       .  A
C2873      C2878   1.404       .  A
C2874      C2875   1.395       .  A
C2874      H2883   1.083       .  S
C2875      C2876   1.401       .  A
C2875      H2884   1.084       .  S
C2876      C2882   1.401       .  A
C2876      C2877   1.414       .  A
C2877      C2879   1.401       .  A
C2877      C2878   1.401       .  A
C2878      H2885   1.084       .  S
C2879      C2880   1.395       .  A
C2879      H2886   1.084       .  S
C2880      C2881   1.405       .  A
C2880      H2887   1.083       .  S
C2881      C2882   1.405       .  A
C2882      H2888   1.084       .  S
C2889      C2890   1.405       .  A
C2889      C2894   1.406       .  A
C2890      C2891   1.406       .  A
C2890      H2899   1.083       .  S
C2891      C2892   1.408       .  A
C2891      H2900   1.083       .  S
C2892      C2898   1.412       .  A
C2892      C2893   1.413       .  A
C2893      C2895   1.399       .  A
C2893      C2894   1.398       .  A
C2894      H2901   1.085       .  S
C2895      C2896   1.391       .  A
C2895      H2902   1.084       .  S
C2896      C2897   1.405       .  A
C2896      H2903   1.083       .  S
C2897      C2898   1.411       .  A
C2898      H2904   1.084       .  S
C2905      C2906   1.405       .  A
C2905      C2910   1.406       .  A
C2906      C2907   1.392       .  A
C2906      H2915   1.083       .  S
C2907      C2908   1.399       .  A
C2907      H2916   1.084       .  S
C2908      C2914   1.396       .  A
C2908      C2909   1.413       .  A
C2909      C2911   1.404       .  A
C2909      C2910   1.404       .  A
C2910      H2917   1.084       .  S
C2911      C2912   1.399       .  A
C2911      H2918   1.084       .  S
C2912      C2913   1.405       .  A
C2912      H2919   1.083       .  S
C2913      C2914   1.402       .  A
C2914      H2920   1.084       .  S
C2921      C2922   1.405       .  A
C2921      C2926   1.406       .  A
C2922      C2923   1.406       .  A
C2922      H2931   1.083       .  S
C2923      C2924   1.408       .  A
C2923      H2932   1.083       .  S
C2924      C2930   1.412       .  A
C2924      C2925   1.413       .  A
C2925      C2927   1.399       .  A
C2925      C2926   1.399       .  A
C2926      H2933   1.085       .  S
C2927      C2928   1.392       .  A
C2927      H2934   1.084       .  S
C2928      C2929   1.405       .  A
C2928      H2935   1.083       .  S
C2929      C2930   1.411       .  A
C2930      H2936   1.084       .  S
C2937      C2938   1.405   1_545  A
C2937      C2942   1.404       .  A
C2938      C2939   1.394       .  A
C2938      H2947   1.083       .  S
C2939      C2940   1.400       .  A
C2939      H2948   1.084       .  S
C2940      C2946   1.399       .  A
C2940      C2941   1.414       .  A
C2941      C2943   1.402   1_565  A
C2941      C2942   1.401   1_565  A
C2942      H2949   1.084       .  S
C2943      C2944   1.397   1_545  A
C2943      H2950   1.084       .  S
C2944      C2945   1.405       .  A
C2944      H2951   1.083   1_565  S
C2945      C2946   1.404       .  A
C2946      H2952   1.084       .  S
C2953      C2954   1.407       .  A
C2953      C2958   1.413       .  A
C2954      C2955   1.394       .  A
C2954      H2963   1.083       .  S
C2955      C2956   1.399       .  A
C2955      H2964   1.084       .  S
C2956      C2962   1.407       .  A
C2956      C2957   1.414       .  A
C2957      C2959   1.408       .  A
C2957      C2958   1.419       .  A
C2958      H2965   1.084       .  S
C2959      C2960   1.409       .  A
C2959      H2966   1.083       .  S
C2960      C2961   1.408       .  A
C2960      H2967   1.083       .  S
C2961      C2962   1.408       .  A
C2962      H2968   1.084       .  S
C2969      C2970   1.407       .  A
C2969      C2974   1.413       .  A
C2970      C2971   1.390       .  A
C2970      H2979   1.083       .  S
C2971      C2972   1.397       .  A
C2971      H2980   1.084       .  S
C2972      C2978   1.399       .  A
C2972      C2973   1.413       .  A
C2973      C2975   1.408       .  A
C2973      C2974   1.416       .  A
C2974      H2981   1.084       .  S
C2975      C2976   1.408       .  A
C2975      H2982   1.083       .  S
C2976      C2977   1.405       .  A
C2976      H2983   1.083       .  S
C2977      C2978   1.405       .  A
C2978      H2984   1.085       .  S
C2985      C2986   1.408       .  A
C2985      C2990   1.411       .  A
C2986      C2987   1.396       .  A
C2986      H2995   1.083       .  S
C2987      C2988   1.400       .  A
C2987      H2996   1.084       .  S
C2988      C2994   1.406       .  A
C2988      C2989   1.414       .  A
C2989      C2991   1.406       .  A
C2989      C2990   1.415       .  A
C2990      H2997   1.084       .  S
C2991      C2992   1.405       .  A
C2991      H2998   1.083       .  S
C2992      C2993   1.407       .  A
C2992      H2999   1.083       .  S
C2993      C2994   1.408       .  A
C2994      H3000   1.084       .  S
C3001      C3002   1.407       .  A
C3001      C3006   1.410       .  A
C3002      C3003   1.402       .  A
C3002      H3011   1.083       .  S
C3003      C3004   1.404       .  A
C3003      H3012   1.084       .  S
C3004      C3010   1.410       .  A
C3004      C3005   1.413       .  A
C3005      C3007   1.403       .  A
C3005      C3006   1.409       .  A
C3006      H3013   1.084       .  S
C3007      C3008   1.400       .  A
C3007      H3014   1.084       .  S
C3008      C3009   1.407       .  A
C3008      H3015   1.083       .  S
C3009      C3010   1.410       .  A
C3010      H3016   1.084       .  S
C3017      C3018   1.407       .  A
C3017      C3022   1.409       .  A
C3018      C3019   1.396       .  A
C3018      H3027   1.083       .  S
C3019      C3020   1.400       .  A
C3019      H3028   1.084       .  S
C3020      C3026   1.405       .  A
C3020      C3021   1.414       .  A
C3021      C3023   1.405       .  A
C3021      C3022   1.412       .  A
C3022      H3029   1.084       .  S
C3023      C3024   1.403       .  A
C3023      H3030   1.083       .  S
C3024      C3025   1.406       .  A
C3024      H3031   1.083       .  S
C3025      C3026   1.405       .  A
C3026      H3032   1.084       .  S
C3033      C3034   1.407       .  A
C3033      C3038   1.410       .  A
C3034      C3035   1.396       .  A
C3034      H3043   1.083       .  S
C3035      C3036   1.401       .  A
C3035      H3044   1.084       .  S
C3036      C3042   1.406       .  A
C3036      C3037   1.414       .  A
C3037      C3039   1.405       .  A
C3037      C3038   1.413       .  A
C3038      H3045   1.084       .  S
C3039      C3040   1.404       .  A
C3039      H3046   1.083       .  S
C3040      C3041   1.406       .  A
C3040      H3047   1.083       .  S
C3041      C3042   1.408       .  A
C3042      H3048   1.084       .  S
C3049      C3050   1.407       .  A
C3049      C3054   1.408       .  A
C3050      C3051   1.405       .  A
C3050      H3059   1.083       .  S
C3051      C3052   1.406       .  A
C3051      H3060   1.083       .  S
C3052      C3058   1.415       .  A
C3052      C3053   1.414       .  A
C3053      C3055   1.401       .  A
C3053      C3054   1.409       .  A
C3054      H3061   1.084       .  S
C3055      C3056   1.398       .  A
C3055      H3062   1.084       .  S
C3056      C3057   1.408       .  A
C3056      H3063   1.083       .  S
C3057      C3058   1.412       .  A
C3058      H3064   1.084       .  S
C3065      C3066   1.407       .  A
C3065      C3070   1.412       .  A
C3066      C3067   1.392       .  A
C3066      H3075   1.083       .  S
C3067      C3068   1.398       .  A
C3067      H3076   1.084       .  S
C3068      C3074   1.400       .  A
C3068      C3069   1.413       .  A
C3069      C3071   1.408       .  A
C3069      C3070   1.415       .  A
C3070      H3077   1.084       .  S
C3071      C3072   1.407       .  A
C3071      H3078   1.083       .  S
C3072      C3073   1.405       .  A
C3072      H3079   1.083       .  S
C3073      C3074   1.406       .  A
C3074      H3080   1.085       .  S
C3081      C3082   1.407       .  A
C3081      C3086   1.408       .  A
C3082      C3083   1.405       .  A
C3082      H3091   1.083       .  S
C3083      C3084   1.406       .  A
C3083      H3092   1.083       .  S
C3084      C3090   1.414       .  A
C3084      C3085   1.414       .  A
C3085      C3087   1.400       .  A
C3085      C3086   1.405       .  A
C3086      H3093   1.084       .  S
C3087      C3088   1.395       .  A
C3087      H3094   1.084       .  S
C3088      C3089   1.407       .  A
C3088      H3095   1.083       .  S
C3089      C3090   1.411       .  A
C3090      H3096   1.084       .  S
C3097      C3098   1.407       .  A
C3097      C3102   1.411       .  A
C3098      C3099   1.395       .  A
C3098      H3107   1.083       .  S
C3099      C3100   1.400       .  A
C3099      H3108   1.084       .  S
C3100      C3106   1.405       .  A
C3100      C3101   1.414       .  A
C3101      C3103   1.405       .  A
C3101      C3102   1.413       .  A
C3102      H3109   1.084       .  S
C3103      C3104   1.404       .  A
C3103      H3110   1.083       .  S
C3104      C3105   1.407       .  A
C3104      H3111   1.083       .  S
C3105      C3106   1.406       .  A
C3106      H3112   1.084       .  S
C3113      C3114   1.406       .  A
C3113      C3118   1.411       .  A
C3114      C3115   1.389       .  A
C3114      H3123   1.083       .  S
C3115      C3116   1.397       .  A
C3115      H3124   1.084       .  S
C3116      C3122   1.396       .  A
C3116      C3117   1.413       .  A
C3117      C3119   1.408       .  A
C3117      C3118   1.412       .  A
C3118      H3125   1.084       .  S
C3119      C3120   1.406       .  A
C3119      H3126   1.083       .  S
C3120      C3121   1.406       .  A
C3120      H3127   1.083       .  S
C3121      C3122   1.405       .  A
C3122      H3128   1.084       .  S
C3129      C3130   1.406       .  A
C3129      C3134   1.409       .  A
C3130      C3131   1.398       .  A
C3130      H3139   1.083       .  S
C3131      C3132   1.402       .  A
C3131      H3140   1.084       .  S
C3132      C3138   1.406       .  A
C3132      C3133   1.414       .  A
C3133      C3135   1.403       .  A
C3133      C3134   1.409       .  A
C3134      H3141   1.084       .  S
C3135      C3136   1.401       .  A
C3135      H3142   1.084       .  S
C3136      C3137   1.407       .  A
C3136      H3143   1.083       .  S
C3137      C3138   1.408       .  A
C3138      H3144   1.084       .  S
C3145      C3146   1.407       .  A
C3145      C3150   1.412       .  A
C3146      C3147   1.394       .  A
C3146      H3155   1.083       .  S
C3147      C3148   1.400       .  A
C3147      H3156   1.084       .  S
C3148      C3154   1.405       .  A
C3148      C3149   1.413       .  A
C3149      C3151   1.407       .  A
C3149      C3150   1.415       .  A
C3150      H3157   1.084       .  S
C3151      C3152   1.407       .  A
C3151      H3158   1.083       .  S
C3152      C3153   1.407       .  A
C3152      H3159   1.083       .  S
C3153      C3154   1.408       .  A
C3154      H3160   1.084       .  S
C3161      C3162   1.406       .  A
C3161      C3166   1.406       .  A
C3162      C3163   1.399       .  A
C3162      H3171   1.083       .  S
C3163      C3164   1.403       .  A
C3163      H3172   1.083       .  S
C3164      C3170   1.408       .  A
C3164      C3165   1.415       .  A
C3165      C3167   1.401       .  A
C3165      C3166   1.405       .  A
C3166      H3173   1.084       .  S
C3167      C3168   1.397       .  A
C3167      H3174   1.084       .  S
C3168      C3169   1.406       .  A
C3168      H3175   1.083       .  S
C3169      C3170   1.406       .  A
C3170      H3176   1.084       .  S
C3177      C3178   1.406       .  A
C3177      C3182   1.408       .  A
C3178      C3179   1.404       .  A
C3178      H3187   1.083       .  S
C3179      C3180   1.406       .  A
C3179      H3188   1.083       .  S
C3180      C3186   1.414       .  A
C3180      C3181   1.414       .  A
C3181      C3183   1.401       .  A
C3181      C3182   1.406       .  A
C3182      H3189   1.084       .  S
C3183      C3184   1.397       .  A
C3183      H3190   1.084       .  S
C3184      C3185   1.407       .  A
C3184      H3191   1.083       .  S
C3185      C3186   1.411       .  A
C3186      H3192   1.084       .  S
C3193      C3194   1.408       .  A
C3193      C3198   1.410       .  A
C3194      C3195   1.399       .  A
C3194      H3203   1.083       .  S
C3195      C3196   1.402       .  A
C3195      H3204   1.084       .  S
C3196      C3202   1.411       .  A
C3196      C3197   1.414       .  A
C3197      C3199   1.404       .  A
C3197      C3198   1.414       .  A
C3198      H3205   1.084       .  S
C3199      C3200   1.402       .  A
C3199      H3206   1.083       .  S
C3200      C3201   1.407       .  A
C3200      H3207   1.083       .  S
C3201      C3202   1.409       .  A
C3202      H3208   1.084       .  S
C3209      C3210   1.406       .  A
C3209      C3214   1.410       .  A
C3210      C3211   1.393       .  A
C3210      H3219   1.083       .  S
C3211      C3212   1.399       .  A
C3211      H3220   1.084       .  S
C3212      C3218   1.402       .  A
C3212      C3213   1.414       .  A
C3213      C3215   1.405       .  A
C3213      C3214   1.411       .  A
C3214      H3221   1.084       .  S
C3215      C3216   1.403       .  A
C3215      H3222   1.084       .  S
C3216      C3217   1.407       .  A
C3216      H3223   1.083       .  S
C3217      C3218   1.404       .  A
C3218      H3224   1.084       .  S
C3225      C3226   1.406       .  A
C3225      C3230   1.406       .  A
C3226      C3227   1.406       .  A
C3226      H3235   1.083       .  S
C3227      C3228   1.407       .  A
C3227      H3236   1.083       .  S
C3228      C3234   1.413       .  A
C3228      C3229   1.413       .  A
C3229      C3231   1.399       .  A
C3229      C3230   1.400       .  A
C3230      H3237   1.084       .  S
C3231      C3232   1.392       .  A
C3231      H3238   1.084       .  S
C3232      C3233   1.405       .  A
C3232      H3239   1.083       .  S
C3233      C3234   1.410       .  A
C3234      H3240   1.084       .  S
