geometry optimzed in LAMMPS
_audit_creation_date              2020-11-30 
_audit_creation_method            'lammps2cif' 
_symmetry_space_group_name_H-M    'P1' 
_symmetry_Int_Tables_number       1 
_symmetry_cell_setting            triclinic 
loop_ 
_symmetry_equiv_pos_as_xyz 
  x,y,z 
_cell_length_a                    35.25523541 
_cell_length_b                    36.08508894276403 
_cell_length_c                    35.65653132698146 
_cell_angle_alpha                 90.55536948353661 
_cell_angle_beta                  90.90420961340776 
_cell_angle_gamma                 89.74059942693495 
loop_ 
_atom_site_label 
_atom_site_type_symbol 
_atom_site_fract_x 
_atom_site_fract_y 
_atom_site_fract_z 
_atom_site_charge 
In1        In  0.94415860  0.87164630  0.49641342     1.36900
C2          C  0.89776636  0.86487466  0.43806178     0.76900
O3          O  0.89273723  0.87452412  0.53186089    -0.61600
O4          O  0.93142240  0.91968716  0.53388549    -0.52500
C5          C  0.98400202  0.82564967  0.53867568     0.69600
O6          O  0.96128519  0.81381857  0.51353426    -0.47300
C7          C  0.99507892  0.89538119  0.44919331     0.74300
O8          O  0.90524095  0.83764770  0.45926167    -0.59200
O9          O  0.97621303  0.91748159  0.46942883    -0.49300
O10         O  0.91090114  0.89547722  0.44910484    -0.55600
C11         C  0.89954583  0.90711356  0.54328557     0.84400
O12         O  0.98544288  0.86045585  0.54238542    -0.57500
O13         O  0.99115644  0.86153265  0.45650876    -0.60800
In14       In  0.74433244  0.02017109  0.44981325     1.36900
C15         C  0.74209369  0.97150135  0.39163638     0.76900
O16         O  0.74827791  0.05928154  0.40275660    -0.61600
O17         O  0.79799665  0.04714312  0.43579440    -0.52500
C18         C  0.69924073  0.06392143  0.49148012     0.69600
O19         O  0.69233084  0.02962388  0.48724351    -0.47300
C20         C  0.78494046  0.99275434  0.50581426     0.74300
O21         O  0.71912066  0.99842986  0.39408935    -0.59200
O22         O  0.79566428  0.01921843  0.48573766    -0.49300
O23         O  0.76046674  0.96563438  0.42153984    -0.55600
C24         C  0.78372811  0.06263777  0.40722853     0.84400
O25         O  0.72519721  0.07536750  0.47098038    -0.57500
O26         O  0.75254549  0.97986119  0.49705509    -0.60800
In27       In  0.77860173  0.98017327  0.17853442     1.36900
C28         C  0.77439760  0.96224727  0.25182806     0.76900
O29         O  0.72448314  0.00908271  0.19095904    -0.61600
O30         O  0.73770050  0.00036604  0.13362203    -0.52500
C31         C  0.82062967  0.03469033  0.14948240     0.69600
O32         O  0.80744552  0.03612856  0.18218166    -0.47300
C33         C  0.78283327  0.90992346  0.15572478     0.74300
O34         O  0.80567865  0.96909402  0.23615796    -0.59200
O35         O  0.75619025  0.93147204  0.14635749    -0.49300
O36         O  0.74579296  0.96799029  0.23095144    -0.55600
C37         C  0.71587207  0.01518806  0.15712122     0.84400
O38         O  0.81874816  0.00275120  0.13493955    -0.57500
O39         O  0.80981815  0.92535192  0.17337756    -0.60800
In40       In  0.62511129  0.80762248  0.19852999     1.36900
C41         C  0.63951347  0.80880374  0.27198873     0.76900
O42         O  0.68363424  0.78134010  0.19472276    -0.61600
O43         O  0.66419727  0.81660610  0.15134042    -0.52500
C44         C  0.56330877  0.77359281  0.17196011     0.69600
O45         O  0.56369851  0.79249300  0.20181955    -0.47300
C46         C  0.61386248  0.87813516  0.18161359     0.74300
O47         O  0.64442810  0.78000192  0.25194591    -0.59200
O48         O  0.63996752  0.86807889  0.20384194    -0.49300
O49         O  0.62020443  0.83375668  0.25608355    -0.55600
C50         C  0.69178088  0.79959390  0.16593649     0.84400
O51         O  0.59584245  0.76613216  0.15962053    -0.57500
O52         O  0.59548429  0.85194184  0.16675900    -0.60800
C53         C  0.77080049  0.94449624  0.29043658     0.85800
C54         C  0.80813519  0.92871049  0.30631193    -0.54400
C55         C  0.80438418  0.91044206  0.33933630     0.08700
C56         C  0.76360696  0.91017518  0.35434013     0.19700
C57         C  0.74452665  0.91077366  0.28859709    -0.55200
C58         C  0.74016185  0.89255067  0.32192000     0.08800
C59         C  0.75436104  0.96901734  0.32210785    -0.54700
C60         C  0.75072815  0.95122130  0.35585912     0.09400
H61         H  0.83478382  0.92951258  0.29146053     0.13900
H62         H  0.76123928  0.89593329  0.38159920    -0.00400
H63         H  0.73145044  0.90206731  0.26228609     0.14200
H64         H  0.74811535  0.99828661  0.31862591     0.14000
C65         C  0.87961781  0.86113022  0.39997580     0.85800
C66         C  0.90949371  0.86530058  0.36937190    -0.54400
C67         C  0.89577633  0.86169398  0.33366364     0.08700
C68         C  0.85262845  0.85415590  0.33192805     0.19700
C69         C  0.84883739  0.88996289  0.39045094    -0.55200
C70         C  0.83493192  0.88653111  0.35458149     0.08800
C71         C  0.86064715  0.82372279  0.39233556    -0.54700
C72         C  0.84598921  0.82007517  0.35695885     0.09400
H73         H  0.93956450  0.86862833  0.37562707     0.13900
H74         H  0.84084556  0.85088216  0.30309848    -0.00400
H75         H  0.83904946  0.91104518  0.41002368     0.14200
H76         H  0.85754782  0.80253107  0.41350202     0.14000
C77         C  0.66348539  0.81711849  0.30682389     0.85800
C78         C  0.64507273  0.82800626  0.34402179    -0.54400
C79         C  0.67103285  0.83642588  0.37207391     0.08700
C80         C  0.71323445  0.83336734  0.35963698     0.19700
C81         C  0.68929668  0.84984682  0.29804557    -0.55200
C82         C  0.71502164  0.85933150  0.32546625     0.08800
C83         C  0.69016340  0.78535362  0.31692826    -0.54700
C84         C  0.71815139  0.79379349  0.34253949     0.09400
H85         H  0.61465300  0.82760113  0.34830733     0.13900
H86         H  0.73396897  0.83967302  0.38243427    -0.00400
H87         H  0.68584976  0.86494654  0.27209703     0.14200
H88         H  0.68809602  0.75878172  0.30268627     0.14000
In89       In  0.62740769  0.84253704  0.47901646     1.36900
C90         C  0.65905292  0.84223878  0.41149094     0.76900
O91         O  0.68035450  0.86796512  0.50328991    -0.61600
O92         O  0.66492063  0.81220886  0.51713364    -0.52500
C93         C  0.58184231  0.87098178  0.53033977     0.69600
O94         O  0.59209069  0.89037666  0.50258532    -0.47300
C95         C  0.57820974  0.79779783  0.44833897     0.74300
O96         O  0.63899265  0.86952847  0.42279106    -0.59200
O97         O  0.60587436  0.78565586  0.46782330    -0.49300
O98         O  0.66554283  0.81781770  0.43581833    -0.55600
C99         C  0.68903445  0.83803828  0.51988956     0.84400
O100        O  0.59589023  0.83877714  0.53153554    -0.57500
O101        O  0.57391597  0.83255709  0.44816961    -0.60800
In102      In  0.78928185  0.67967107  0.48075726     1.36900
C103        C  0.79881109  0.71923818  0.41977737     0.76900
O104        O  0.78114911  0.63451560  0.43992602    -0.61600
O105        O  0.73137847  0.66017930  0.46262290    -0.52500
C106        C  0.81551525  0.62901525  0.52796575     0.69600
O107        O  0.83642005  0.64198422  0.50254794    -0.47300
C108        C  0.78607302  0.73720562  0.52482991     0.74300
O109        O  0.82394843  0.69657065  0.43172142    -0.59200
O110        O  0.75814965  0.71562588  0.51942441    -0.49300
O111        O  0.77068066  0.72380478  0.44076414    -0.55600
C112        C  0.74545938  0.63710592  0.43960978     0.84400
O113        O  0.78245710  0.64257853  0.52914402    -0.57500
O114        O  0.81709301  0.72731484  0.51016518    -0.60800
In115      In  0.97952681  0.84009017  0.25635721     1.36900
C116        C  0.92230105  0.85764305  0.30192702     0.76900
O117        O  0.94164376  0.82792355  0.20679061    -0.61600
O118        O  0.97195763  0.78408691  0.23403183    -0.52500
C119        C  0.02575163  0.86393530  0.20268364     0.69600
O120        O  0.03203207  0.83710996  0.22405739    -0.47300
C121        C  0.02756706  0.81678074  0.30906923     0.74300
O122        O  0.94837166  0.88058253  0.29469782    -0.59200
O123        O  0.00421425  0.79593646  0.29209047    -0.49300
O124        O  0.92349107  0.82823480  0.28289490    -0.55600
C125        C  0.94971672  0.79370533  0.20774515     0.84400
O126        O  0.99647173  0.88273764  0.21146356    -0.57500
O127        O  0.02561234  0.85049482  0.29980882    -0.60800
In128      In  0.82387794  0.64615477  0.24052593     1.36900
C129        C  0.80882706  0.70403776  0.28308064     0.76900
O130        O  0.81418932  0.61442582  0.29336497    -0.61600
O131        O  0.87070695  0.62386760  0.27518373    -0.52500
C132        C  0.79377607  0.59304799  0.19779410     0.69600
O133        O  0.77414736  0.62096317  0.20772660    -0.47300
C134        C  0.86101767  0.68059431  0.18854475     0.74300
O135        O  0.78283723  0.68269660  0.27048861    -0.59200
O136        O  0.87581052  0.65562259  0.20875296    -0.49300
O137        O  0.84164098  0.69708358  0.27146236    -0.55600
C138        C  0.84934820  0.61049059  0.29971968     0.84400
O139        O  0.82679822  0.59255098  0.21155035    -0.57500
O140        O  0.82579572  0.68540885  0.19280061    -0.60800
C141        C  0.80238499  0.73157831  0.31407279     0.85800
C142        C  0.76272291  0.74806263  0.31323404    -0.54400
C143        C  0.75442757  0.77140304  0.34265815     0.08700
C144        C  0.78823110  0.77523784  0.37085842     0.19700
C145        C  0.82891741  0.76530529  0.31644604    -0.55200
C146        C  0.82172933  0.78808620  0.34647522     0.08800
C147        C  0.80661207  0.71274452  0.35200553    -0.54700
C148        C  0.79947083  0.73514740  0.38185905     0.09400
H149        H  0.74418309  0.74305832  0.28925105     0.13900
H150        H  0.78239523  0.79363138  0.39525262    -0.00400
H151        H  0.85193732  0.77001140  0.29719532     0.14200
H152        H  0.81356444  0.68349549  0.35495602     0.14000
In153      In  0.63647032  0.19929158  0.22885613     1.36900
C154        C  0.70782381  0.22385982  0.22165369     0.76900
O155        O  0.65689538  0.14275486  0.21786627    -0.61600
O156        O  0.62804633  0.17087884  0.17304880    -0.52500
C157        C  0.58364143  0.16287414  0.26772180     0.69600
O158        O  0.61711955  0.16723779  0.28099955    -0.47300
C159        C  0.60799839  0.26610801  0.22395902     0.74300
O160        O  0.69604248  0.21018010  0.25218074    -0.59200
O161        O  0.60201002  0.24101665  0.19954944    -0.49300
O162        O  0.68342379  0.22444482  0.19544083    -0.55600
C163        C  0.64383896  0.14154717  0.18468730     0.84400
O164        O  0.57745128  0.18031558  0.23771927    -0.57500
O165        O  0.62624929  0.25602873  0.25309951    -0.60800
In166      In  0.65035971  0.36462076  0.06946504     1.36900
C167        C  0.72125699  0.36297630  0.09827353     0.76900
O168        O  0.64039751  0.39593849  0.12301163    -0.61600
O169        O  0.59876085  0.35804440  0.10214357    -0.52500
C170        C  0.62388814  0.39529232  0.00682521     0.69600
O171        O  0.65729074  0.38290055  0.00999676    -0.47300
C172        C  0.63773469  0.29557774  0.04684652     0.74300
O173        O  0.69828097  0.33664716  0.10074314    -0.59200
O174        O  0.65460244  0.31906813  0.02741505    -0.49300
O175        O  0.70844262  0.39064596  0.08037634    -0.55600
C176        C  0.61183033  0.37611650  0.12985799     0.84400
O177        O  0.60730907  0.39988796  0.03766025    -0.57500
O178        O  0.62789628  0.30714102  0.07859749    -0.60800
C179        C  0.81633870  0.23210676  0.22030878     0.85800
C180        C  0.81770944  0.25649113  0.18609269    -0.54400
C181        C  0.78885822  0.28207107  0.18239230     0.08700
C182        C  0.75935881  0.27852379  0.21461834     0.19700
C183        C  0.81343974  0.25954881  0.25355969    -0.55200
C184        C  0.78325904  0.28319851  0.25095731     0.08800
C185        C  0.77749829  0.21313337  0.21852534    -0.54700
C186        C  0.74741172  0.23704134  0.21628495     0.09400
H187        H  0.84243766  0.25492060  0.16859495     0.13900
H188        H  0.73510707  0.29819786  0.21266582    -0.00400
H189        H  0.83259749  0.25949225  0.27771790     0.14200
H190        H  0.77393715  0.18349854  0.22140781     0.14000
In191      In  0.89432557  0.32673832  0.40763779     1.36900
C192        C  0.83739510  0.33844430  0.35836297     0.76900
O193        O  0.93727169  0.32135738  0.36282592    -0.61600
O194        O  0.93159258  0.27645026  0.40036696    -0.52500
C195        C  0.94172035  0.36989723  0.44814782     0.69600
O196        O  0.91866460  0.34761993  0.46191495    -0.47300
C197        C  0.85177269  0.29743591  0.46020322     0.74300
O198        O  0.85079118  0.36419112  0.37893525    -0.59200
O199        O  0.87462059  0.27808789  0.44099556    -0.49300
O200        O  0.85470245  0.30805792  0.36116754    -0.55600
C201        C  0.94816070  0.28935123  0.37211409     0.84400
O202        O  0.93793997  0.37352056  0.41308403    -0.57500
O203        O  0.85073109  0.33141219  0.45191088    -0.60800
In204      In  0.90537772  0.15605432  0.23476250     1.36900
C205        C  0.85004005  0.20587414  0.22285835     0.76900
O206        O  0.85331389  0.12979159  0.25672762    -0.61600
O207        O  0.90200533  0.13517121  0.29274385    -0.52500
C208        C  0.93810551  0.10142374  0.19501316     0.69600
O209        O  0.94439499  0.13518842  0.18823343    -0.47300
C210        C  0.96248423  0.19188791  0.26656748     0.74300
O211        O  0.85810869  0.18141259  0.19833169    -0.59200
O212        O  0.95030554  0.16114300  0.27741013    -0.49300
O213        O  0.87255787  0.20662181  0.25048704    -0.55600
C214        C  0.86773635  0.12592178  0.28905015     0.84400
O215        O  0.91120571  0.09674468  0.21711484    -0.57500
O216        O  0.94791136  0.20300872  0.23591729    -0.60800
C217        C  0.73335005  0.34247247  0.32538456     0.85800
C218        C  0.76752411  0.34203052  0.35269833    -0.54400
C219        C  0.80186961  0.34182390  0.33597026     0.08700
C220        C  0.79909147  0.34183498  0.29291012     0.19700
C221        C  0.73985825  0.37653029  0.30029448    -0.55200
C222        C  0.77453842  0.37589783  0.28337340     0.08800
C223        C  0.73918119  0.30911670  0.29888069    -0.54700
C224        C  0.77348986  0.30923617  0.28152409     0.09400
H225        H  0.76470241  0.34113333  0.38299421     0.13900
H226        H  0.82708469  0.34134847  0.27902679    -0.00400
H227        H  0.71979923  0.39927244  0.29726006     0.14200
H228        H  0.71765910  0.28831170  0.29304823     0.14000
In229      In  0.67979498  0.52793268  0.24423910     1.36900
C230        C  0.74154083  0.48613015  0.22683395     0.76900
O231        O  0.69919383  0.57505526  0.27975795    -0.61600
O232        O  0.69076564  0.52340588  0.30629423    -0.52500
C233        C  0.64828566  0.57915974  0.19961453     0.69600
O234        O  0.67643885  0.58539607  0.22062065    -0.47300
C235        C  0.61834438  0.49526122  0.27058713     0.74300
O236        O  0.70821465  0.47423805  0.22347988    -0.59200
O237        O  0.62946103  0.52659893  0.28164578    -0.49300
O238        O  0.74291853  0.52009470  0.23492127    -0.55600
C239        C  0.69856654  0.55734461  0.31003128     0.84400
O240        O  0.64091656  0.54512810  0.19591301    -0.57500
O241        O  0.63739817  0.48146382  0.24411265    -0.60800
In242      In  0.63972540  0.34233883  0.39611966     1.36900
C243        C  0.69703817  0.34252564  0.34736882     0.76900
O244        O  0.59852860  0.35648791  0.34991932    -0.61600
O245        O  0.60966419  0.39585271  0.39351836    -0.52500
C246        C  0.60056540  0.28684050  0.42465815     0.69600
O247        O  0.63628175  0.28792009  0.42680338    -0.47300
C248        C  0.66683136  0.36920664  0.46080467     0.74300
O249        O  0.67602741  0.31449963  0.35134324    -0.59200
O250        O  0.63449954  0.37771264  0.44788314    -0.49300
O251        O  0.68759165  0.37008217  0.36695123    -0.55600
C252        C  0.59287582  0.38881693  0.36281029     0.84400
O253        O  0.58618075  0.31034269  0.40284115    -0.57500
O254        O  0.68492852  0.34630789  0.44093331    -0.60800
C255        C  0.82797502  0.34730060  0.10659662     0.85800
C256        C  0.79020585  0.35766164  0.08817900    -0.54400
C257        C  0.76074993  0.35976657  0.11270857     0.08700
C258        C  0.77253033  0.35207661  0.15457869     0.19700
C259        C  0.83388282  0.37670620  0.13731437    -0.55200
C260        C  0.80522468  0.38019058  0.16275310     0.08800
C261        C  0.81991157  0.31147451  0.12729599    -0.54700
C262        C  0.79234642  0.31324235  0.15397816     0.09400
H263        H  0.78661596  0.36098977  0.05823166     0.13900
H264        H  0.74879500  0.35393005  0.17453948    -0.00400
H265        H  0.85897834  0.39389459  0.13763115     0.14200
H266        H  0.83587771  0.28664580  0.12088799     0.14000
In267      In  0.95154962  0.47523463  0.27396413     1.36900
C268        C  0.88076918  0.45947700  0.25365244     0.76900
O269        O  0.94513416  0.48168989  0.33647976    -0.61600
O270        O  0.92628612  0.52386237  0.29765667    -0.52500
C271        C  0.00904861  0.52139885  0.26815206     0.69600
O272        O  0.00918316  0.49468803  0.29097389    -0.47300
C273        C  0.97695615  0.41379655  0.24407837     0.74300
O274        O  0.89665632  0.44806353  0.28343980    -0.59200
O275        O  0.97265958  0.44346064  0.22593788    -0.49300
O276        O  0.90117120  0.48055753  0.23403282    -0.55600
C277        C  0.92974679  0.51328195  0.33129119     0.84400
O278        O  0.98033187  0.52242498  0.24611653    -0.57500
O279        O  0.97136958  0.41617138  0.27915108    -0.60800
In280      In  0.93483756  0.34211758  0.05789545     1.36900
C281        C  0.86280688  0.34396268  0.08195657     0.76900
O282        O  0.93973614  0.31105631  0.11228232    -0.61600
O283        O  0.98600291  0.34388235  0.09487074    -0.52500
C284        C  0.95930199  0.30743180  0.99556062     0.69600
O285        O  0.92868359  0.32542736  0.99650872    -0.47300
C286        C  0.95170627  0.41355425  0.05473091     0.74300
O287        O  0.88182963  0.31433253  0.07849307    -0.59200
O288        O  0.95986674  0.39397365  0.08253327    -0.49300
O289        O  0.87849943  0.37166511  0.06783401    -0.55600
C290        C  0.97088722  0.32638815  0.12117387     0.84400
O291        O  0.97457071  0.30332277  0.02736920    -0.57500
O292        O  0.93805137  0.39578830  0.02701024    -0.60800
C293        C  0.84159194  0.44621118  0.24189309     0.85800
C294        C  0.82453291  0.42050718  0.27096874    -0.54400
C295        C  0.79028168  0.40616914  0.26103202     0.08700
C296        C  0.77556488  0.41890914  0.22225592     0.19700
C297        C  0.84216171  0.42302338  0.20589127    -0.55200
C298        C  0.80798165  0.40774685  0.19511768     0.08800
C299        C  0.81111230  0.47590984  0.23536424    -0.54700
C300        C  0.77613251  0.46208797  0.22529549     0.09400
H301        H  0.83898134  0.41278065  0.29690233     0.13900
H302        H  0.74772597  0.40709053  0.21447975    -0.00400
H303        H  0.86871683  0.41748482  0.19203965     0.14200
H304        H  0.81606212  0.50510172  0.24124147     0.14000
In305      In  0.90323254  0.48739842  0.83958346     1.36900
C306        C  0.88549361  0.41503622  0.83292506     0.76900
O307        O  0.96380149  0.47603222  0.83220878    -0.61600
O308        O  0.94408857  0.48374881  0.88836471    -0.52500
C309        C  0.92728924  0.55075803  0.81030187     0.69600
O310        O  0.92345838  0.52155790  0.79016631    -0.47300
C311        C  0.83523621  0.50877779  0.85880723     0.74300
O312        O  0.88809153  0.43587276  0.80443811    -0.59200
O313        O  0.86314058  0.50889058  0.88165572    -0.49300
O314        O  0.89244838  0.43112224  0.86388430    -0.55600
C315        C  0.97189176  0.47801146  0.86684259     0.84400
O316        O  0.91579341  0.54749772  0.84348244    -0.57500
O317        O  0.84264884  0.49929593  0.82541572    -0.60800
In318      In  0.77679317  0.46356564  0.02009098     1.36900
C319        C  0.78452246  0.39716564  0.98641290     0.76900
O320        O  0.73225857  0.46951968  0.97440648    -0.61600
O321        O  0.77245467  0.51257970  0.98457492    -0.52500
C322        C  0.75020916  0.48636825  0.08474279     0.69600
O323        O  0.76564941  0.45495324  0.08095779    -0.47300
C324        C  0.84621739  0.48621543  0.03639285     0.74300
O325        O  0.75751859  0.40455853  0.00840044    -0.59200
O326        O  0.82789019  0.49847988  0.00855354    -0.49300
O327        O  0.80903899  0.42232528  0.98483817    -0.55600
C328        C  0.74661211  0.49960019  0.96349687     0.84400
O329        O  0.73971821  0.50109892  0.05444444    -0.57500
O330        O  0.82902192  0.46228891  0.05517779    -0.60800
In331      In  0.96073385  0.21560108  0.82413861     1.36900
C332        C  0.91895723  0.27765403  0.83437187     0.76900
O333        O  0.00328867  0.24963280  0.79577184    -0.61600
O334        O  0.97735831  0.20511996  0.76508661    -0.52500
C335        C  0.01235846  0.17534753  0.86329952     0.69600
O336        O  0.01502980  0.20996689  0.85956012    -0.47300
C337        C  0.90042809  0.17941336  0.80162179     0.74300
O338        O  0.92508153  0.25476464  0.86066325    -0.59200
O339        O  0.93053296  0.18000427  0.78294501    -0.49300
O340        O  0.93811488  0.27118493  0.80571410    -0.55600
C341        C  0.99873782  0.23308535  0.76463289     0.84400
O342        O  0.98080972  0.16283074  0.85234567    -0.57500
O343        O  0.90307578  0.19301401  0.83434621    -0.60800
In344      In  0.74383835  0.21259454  0.64937414     1.36900
C345        C  0.74828073  0.27048847  0.69733589     0.76900
O346        O  0.74534560  0.18517031  0.70465669    -0.61600
O347        O  0.79364099  0.18111218  0.66874168    -0.52500
C348        C  0.69912326  0.16362614  0.61305851     0.69600
O349        O  0.68846345  0.19691636  0.61853218    -0.47300
C350        C  0.77393600  0.24074019  0.58856432     0.74300
O351        O  0.71777387  0.25187062  0.69344272    -0.59200
O352        O  0.78918067  0.21444585  0.60655897    -0.49300
O353        O  0.77400509  0.26098048  0.67502013    -0.55600
C354        C  0.77963561  0.17545262  0.70066867     0.84400
O355        O  0.72925696  0.15508712  0.63026574    -0.57500
O356        O  0.74304155  0.25275802  0.60167780    -0.60800
C357        C  0.88879917  0.30802806  0.83460851     0.85800
C358        C  0.86420045  0.30804436  0.86963334    -0.54400
C359        C  0.83640347  0.33424733  0.86959254     0.08700
C360        C  0.83553129  0.35852333  0.83382185     0.19700
C361        C  0.86024420  0.30425769  0.80148036    -0.55200
C362        C  0.83181193  0.33048386  0.80047422     0.08800
C363        C  0.90387700  0.34785866  0.83152173    -0.54700
C364        C  0.87619733  0.37463684  0.83104356     0.09400
H365        H  0.86836404  0.28895013  0.89272124     0.13900
H366        H  0.81313893  0.37980158  0.83472298    -0.00400
H367        H  0.86279708  0.28221768  0.78079243     0.14200
H368        H  0.93391358  0.35433715  0.83083004     0.14000
C369        C  0.78398645  0.36425690  0.95947704     0.85800
C370        C  0.78801583  0.32530026  0.97619062    -0.54400
C371        C  0.78506508  0.29694859  0.95033511     0.08700
C372        C  0.77739182  0.31121303  0.90941001     0.19700
C373        C  0.81378944  0.36577216  0.92817539    -0.55200
C374        C  0.81026673  0.33817090  0.90183280     0.08800
C375        C  0.74612270  0.36398107  0.93846487    -0.54700
C376        C  0.74214918  0.33754182  0.91109548     0.09400
H377        H  0.79288927  0.32051080  0.00585843     0.13900
H378        H  0.77504740  0.28860598  0.88824583    -0.00400
H379        H  0.83556739  0.38688533  0.92672629     0.14200
H380        H  0.72560887  0.38567936  0.94361772     0.14000
C381        C  0.75481724  0.30257902  0.72482118     0.85800
C382        C  0.75724860  0.33884419  0.70370949    -0.54400
C383        C  0.76438306  0.36918978  0.72536820     0.08700
C384        C  0.76842708  0.36032511  0.76794706     0.19700
C385        C  0.79239674  0.30011080  0.74778971    -0.55200
C386        C  0.79975342  0.33004596  0.77127739     0.08800
C387        C  0.72464658  0.30914968  0.75479683    -0.54700
C388        C  0.73193913  0.33904750  0.77782087     0.09400
H389        H  0.75246458  0.34058410  0.67357584     0.13900
H390        H  0.77319954  0.38519010  0.78560604    -0.00400
H391        H  0.81014938  0.27554820  0.74665211     0.14200
H392        H  0.70086641  0.29069729  0.75885592     0.14000
In393      In  0.58617782  0.46192901  0.83015806     1.36900
C394        C  0.62835390  0.40187255  0.84933971     0.76900
O395        O  0.54531750  0.45127063  0.78333039    -0.61600
O396        O  0.60375400  0.44623942  0.77158435    -0.52500
C397        C  0.52553832  0.48619537  0.86820210     0.69600
O398        O  0.52522084  0.45831702  0.84675480    -0.47300
C399        C  0.62331297  0.52150852  0.80903834     0.74300
O400        O  0.59521288  0.39951147  0.83592297    -0.59200
O401        O  0.59120296  0.51271052  0.79623097    -0.49300
O402        O  0.63742140  0.43457360  0.85837027    -0.55600
C403        C  0.57018000  0.44441303  0.75919770     0.84400
O404        O  0.55855948  0.49778774  0.87562695    -0.57500
O405        O  0.63417317  0.50275408  0.83701456    -0.60800
In406      In  0.75554693  0.46420639  0.66081669     1.36900
C407        C  0.76202791  0.40597022  0.70707638     0.76900
O408        O  0.75656533  0.50052589  0.71192225    -0.61600
O409        O  0.70759022  0.50100117  0.67632671    -0.52500
C410        C  0.79989637  0.51123903  0.62491981     0.69600
O411        O  0.81318852  0.48090755  0.63725510    -0.47300
C412        C  0.72486759  0.43192655  0.60017396     0.74300
O413        O  0.79039554  0.42583088  0.69941944    -0.59200
O414        O  0.70564360  0.45073041  0.62312789    -0.49300
O415        O  0.73129301  0.41690966  0.69243490    -0.55600
C416        C  0.72366757  0.51338154  0.70575926     0.84400
O417        O  0.76552621  0.51685474  0.63181668    -0.57500
O418        O  0.75958467  0.42909305  0.60896055    -0.60800
In419      In  0.78108797  0.18412499  0.98459056     1.36900
C420        C  0.78792123  0.25668665  0.96172456     0.76900
O421        O  0.80626098  0.15479881  0.93494161    -0.61600
O422        O  0.76044173  0.12990438  0.96343218    -0.52500
C423        C  0.81864418  0.15138697  0.04214750     0.69600
O424        O  0.83298125  0.15360557  0.00988368    -0.47300
C425        C  0.70737838  0.18659390  0.99696612     0.74300
O426        O  0.79422181  0.24613144  0.99494539    -0.59200
O427        O  0.72029451  0.18129527  0.96470088    -0.49300
O428        O  0.78266973  0.22988629  0.93951175    -0.55600
C429        C  0.78171557  0.12919402  0.93536663     0.84400
O430        O  0.78881323  0.17035447  0.04545694    -0.57500
O431        O  0.73225981  0.18906276  0.02259231    -0.60800
In432      In  0.64482899  0.19570725  0.80628889     1.36900
C433        C  0.65961270  0.26357333  0.83378593     0.76900
O434        O  0.65266619  0.21346181  0.74605276    -0.61600
O435        O  0.59766140  0.21190837  0.77041981    -0.52500
C436        C  0.59621658  0.14199282  0.81853973     0.69600
O437        O  0.61645734  0.14378416  0.78962031    -0.47300
C438        C  0.69701748  0.14888177  0.82877585     0.74300
O439        O  0.68421987  0.24295297  0.81888051    -0.59200
O440        O  0.67381054  0.16463030  0.85042105    -0.49300
O441        O  0.62772643  0.24829473  0.83790760    -0.55600
C442        C  0.61753200  0.22077526  0.74289825     0.84400
O443        O  0.59938487  0.16957930  0.84081137    -0.57500
O444        O  0.69625917  0.15990260  0.79505335    -0.60800
C445        C  0.65692144  0.36988710  0.84878800     0.85800
C446        C  0.68331504  0.36824570  0.88306469    -0.54400
C447        C  0.71113018  0.34119061  0.88154263     0.08700
C448        C  0.70863996  0.31788125  0.84489262     0.19700
C449        C  0.68351270  0.37336429  0.81512200    -0.55200
C450        C  0.70991241  0.34585304  0.81248565     0.08800
C451        C  0.64064000  0.33029451  0.84525590    -0.54700
C452        C  0.66779291  0.30295212  0.84331285     0.09400
H453        H  0.67961269  0.38769996  0.90593403     0.13900
H454        H  0.73054964  0.29590042  0.84242273    -0.00400
H455        H  0.67980657  0.39426267  0.79360730     0.14200
H456        H  0.61060382  0.32471241  0.84187816     0.14000
In457      In  0.10973572  0.32018093  0.58507226     1.36900
C458        C  0.15461071  0.32796457  0.64457921     0.76900
O459        O  0.06385668  0.32354525  0.62552220    -0.61600
O460        O  0.07928973  0.26994504  0.60510911    -0.52500
C461        C  0.06426282  0.36157599  0.54344654     0.69600
O462        O  0.08317986  0.37548852  0.57052786    -0.47300
C463        C  0.16108260  0.29577198  0.53842357     0.74300
O464        O  0.14439341  0.35511502  0.62430552    -0.59200
O465        O  0.13235332  0.27694212  0.54697675    -0.49300
O466        O  0.14300909  0.29679937  0.63333633    -0.55600
C467        C  0.06060813  0.28889654  0.62856202     0.84400
O468        O  0.06992048  0.32752399  0.53734180    -0.57500
O469        O  0.16171817  0.32843174  0.55156995    -0.60800
In470      In  0.30466131  0.16209602  0.60814535     1.36900
C471        C  0.30616220  0.21173260  0.66407479     0.76900
O472        O  0.30873399  0.20570970  0.56497929    -0.61600
O473        O  0.25665645  0.17605374  0.57014217    -0.52500
C474        C  0.34594050  0.11647931  0.56645014     0.69600
O475        O  0.31300019  0.10949544  0.57738896    -0.47300
C476        C  0.27386933  0.11697345  0.65481509     0.74300
O477        O  0.33463784  0.19133089  0.65669232    -0.59200
O478        O  0.25560551  0.12911528  0.62659392    -0.49300
O479        O  0.27928655  0.20963825  0.64052104    -0.55600
C480        C  0.27437737  0.20221649  0.55486417     0.84400
O481        O  0.35966925  0.14689854  0.57852961    -0.57500
O482        O  0.30847564  0.12573722  0.65739436    -0.60800
C483        C  0.29747224  0.24110527  0.76744634     0.85800
C484        C  0.30167564  0.21520157  0.73324542    -0.54400
C485        C  0.30214104  0.23277566  0.69969327     0.08700
C486        C  0.29736592  0.27504767  0.70331495     0.19700
C487        C  0.33023553  0.26910063  0.76380630    -0.55200
C488        C  0.32992642  0.28670536  0.72997294     0.08800
C489        C  0.26156126  0.26399736  0.76027301    -0.54700
C490        C  0.26161951  0.28206631  0.72688153     0.09400
H491        H  0.30477100  0.18532688  0.73551355     0.13900
H492        H  0.29711121  0.28968301  0.67602401    -0.00400
H493        H  0.35177276  0.27408450  0.78535865     0.14200
H494        H  0.23864508  0.26653827  0.78016758     0.14000
In495      In  0.47959774  0.34197306  0.82358991     1.36900
C496        C  0.42644005  0.36103843  0.77450149     0.76900
O497        O  0.52177162  0.34562205  0.77714802    -0.61600
O498        O  0.50003177  0.29259645  0.79062087    -0.52500
C499        C  0.52773770  0.36882808  0.87574657     0.69600
O500        O  0.53333089  0.34049088  0.85582416    -0.47300
C501        C  0.44530814  0.30262368  0.87400349     0.74300
O502        O  0.45557754  0.38093881  0.78013848    -0.59200
O503        O  0.46712654  0.28885045  0.84966085    -0.49300
O504        O  0.42148716  0.33622894  0.79833826    -0.55600
C505        C  0.52175161  0.31120278  0.77017122     0.84400
O506        O  0.49851837  0.38723855  0.86584510    -0.57500
O507        O  0.44001326  0.33726458  0.87184437    -0.60800
In508      In  0.30691382  0.16477568  0.85116276     1.36900
C509        C  0.29736514  0.21877891  0.80274822     0.76900
O510        O  0.31286271  0.20763033  0.89656526    -0.61600
O511        O  0.35891603  0.17066146  0.88574492    -0.52500
C512        C  0.27160206  0.11434576  0.89164508     0.69600
O513        O  0.25578505  0.14517121  0.88413433    -0.47300
C514        C  0.33468754  0.12683440  0.79472596     0.74300
O515        O  0.26996543  0.19802843  0.81178836    -0.59200
O516        O  0.35493754  0.14007284  0.82112801    -0.49300
O517        O  0.32709476  0.21499115  0.82227719    -0.55600
C518        C  0.34733789  0.19933921  0.90279666     0.84400
O519        O  0.30360952  0.10988611  0.87709225    -0.57500
O520        O  0.29938739  0.13139195  0.79816819    -0.60800
C521        C  0.39945056  0.34201539  0.67326595     0.85800
C522        C  0.36850208  0.37191360  0.66990911    -0.54400
C523        C  0.34839093  0.37831814  0.70202885     0.08700
C524        C  0.36174207  0.35324228  0.73472648     0.19700
C525        C  0.42415836  0.35455973  0.70653160    -0.55200
C526        C  0.40483583  0.36057192  0.73884318     0.08800
C527        C  0.37847005  0.30779481  0.68632078    -0.54700
C528        C  0.35860990  0.31353277  0.71839299     0.09400
H529        H  0.36269348  0.38578899  0.64364469     0.13900
H530        H  0.34607495  0.35740024  0.76106103    -0.00400
H531        H  0.45494601  0.35563602  0.70533873     0.14200
H532        H  0.37744804  0.28197025  0.67041471     0.14000
In533      In  0.27274185  0.52599073  0.58588356     1.36900
C534        C  0.27512300  0.48550497  0.64866029     0.76900
O535        O  0.27824261  0.47383851  0.55325094    -0.61600
O536        O  0.32688768  0.50871274  0.55960251    -0.52500
C537        C  0.23616869  0.55970726  0.53041243     0.69600
O538        O  0.21846322  0.53928057  0.55313791    -0.47300
C539        C  0.27795194  0.58345716  0.62862726     0.74300
O540        O  0.24609348  0.48652897  0.62676828    -0.59200
O541        O  0.30534148  0.57308762  0.60823966    -0.49300
O542        O  0.30239501  0.50529003  0.63818503    -0.55600
C543        C  0.31324237  0.47835502  0.54739260     0.84400
O544        O  0.27163175  0.56121099  0.53563475    -0.57500
O545        O  0.24664513  0.56703943  0.62309553    -0.60800
In546      In  0.46964908  0.33880319  0.58135829     1.36900
C547        C  0.42212970  0.33652700  0.63826730     0.76900
O548        O  0.51396598  0.34428937  0.62630836    -0.61600
O549        O  0.49578223  0.39279553  0.59716548    -0.52500
C550        C  0.50872446  0.29084652  0.54072545     0.69600
O551        O  0.47883503  0.28101988  0.55705015    -0.47300
C552        C  0.42470604  0.37120148  0.53246450     0.74300
O553        O  0.44736619  0.31174550  0.63404463    -0.59200
O554        O  0.45699460  0.38389186  0.54136250    -0.49300
O555        O  0.41929690  0.35891885  0.61172906    -0.55600
C556        C  0.51454491  0.37915465  0.62411404     0.84400
O557        O  0.51847060  0.32394145  0.54644139    -0.57500
O558        O  0.41840811  0.33871711  0.54393733    -0.60800
C559        C  0.17819931  0.33231093  0.67977641     0.85800
C560        C  0.19813419  0.36941345  0.68155707    -0.54400
C561        C  0.22071079  0.37548590  0.71253469     0.08700
C562        C  0.21947048  0.34242787  0.74031393     0.19700
C563        C  0.21014889  0.30369740  0.68418571    -0.55200
C564        C  0.23137041  0.30846306  0.71613406     0.08800
C565        C  0.15548955  0.32999654  0.71598867    -0.54700
C566        C  0.17668829  0.33531738  0.74796604     0.09400
H567        H  0.19687574  0.38744109  0.65755962     0.13900
H568        H  0.23712566  0.34629464  0.76610577    -0.00400
H569        H  0.21491254  0.28108767  0.66444510     0.14200
H570        H  0.12519670  0.32459087  0.71625362     0.14000
In571      In  0.12801585  0.33082175  0.85433941     1.36900
C572        C  0.15949708  0.33309228  0.78582974     0.76900
O573        O  0.09983059  0.38422528  0.83867160    -0.61600
O574        O  0.11901836  0.37767596  0.89491820    -0.52500
C575        C  0.06686822  0.29518093  0.87955186     0.69600
O576        O  0.06567682  0.31513392  0.85073949    -0.47300
C577        C  0.19010522  0.31653000  0.89280664     0.74300
O578        O  0.13210268  0.31187945  0.79339154    -0.59200
O579        O  0.16719858  0.34216645  0.90100917    -0.49300
O580        O  0.17056763  0.35285995  0.81308650    -0.55600
C581        C  0.10059506  0.39691898  0.87175062     0.84400
O582        O  0.10017581  0.28772845  0.89043862    -0.57500
O583        O  0.17896752  0.29462167  0.86693137    -0.60800
In584      In  0.28294178  0.47912310  0.86378136     1.36900
C585        C  0.29090556  0.46013546  0.79036897     0.76900
O586        O  0.31512788  0.42606501  0.87728190    -0.61600
O587        O  0.26134327  0.43652414  0.90190326    -0.52500
C588        C  0.31607768  0.53793605  0.89923263     0.69600
O589        O  0.30237934  0.53906476  0.86641875    -0.47300
C590        C  0.21179540  0.50361454  0.86557424     0.74300
O591        O  0.30238385  0.49080409  0.80375996    -0.59200
O592        O  0.23145595  0.49926520  0.89490909    -0.49300
O593        O  0.27830333  0.43873529  0.81476569    -0.55600
C594        C  0.28797596  0.41371167  0.89640398     0.84400
O595        O  0.32022406  0.50519844  0.91091141    -0.57500
O596        O  0.22750280  0.49217594  0.83642189    -0.60800
C597        C  0.27906925  0.45965835  0.68226710     0.85800
C598        C  0.28613104  0.47644137  0.72167888    -0.54400
C599        C  0.28956915  0.45031809  0.74952643     0.08700
C600        C  0.28651597  0.40957425  0.73465039     0.19700
C601        C  0.31222137  0.43289144  0.67666075    -0.55200
C602        C  0.31693281  0.40658820  0.70377947     0.08800
C603        C  0.24441910  0.43526456  0.68696609    -0.54700
C604        C  0.24808263  0.40762310  0.71293306     0.09400
H605        H  0.28650426  0.50607930  0.72724735     0.13900
H606        H  0.28932870  0.38838661  0.75679739    -0.00400
H607        H  0.33083182  0.43573803  0.65298243     0.14200
H608        H  0.21920392  0.43964798  0.66989969     0.14000
In609      In  0.29346317  0.69975357  0.07046519     1.36900
C610        C  0.29908106  0.77084403  0.09913350     0.76900
O611        O  0.23998137  0.71459148  0.04127756    -0.61600
O612        O  0.23670152  0.67698346  0.08675707    -0.52500
C613        C  0.31779325  0.66051570  0.00900499     0.69600
O614        O  0.33510060  0.66022048  0.04029306    -0.47300
C615        C  0.31184139  0.66092133  0.12901557     0.74300
O616        O  0.31399312  0.76119113  0.06825173    -0.59200
O617        O  0.28371341  0.65359910  0.10789626    -0.49300
O618        O  0.28290821  0.74449428  0.11486021    -0.55600
C619        C  0.21940300  0.69493949  0.06171072     0.84400
O620        O  0.29226716  0.68506953  0.00786121    -0.57500
O621        O  0.33467492  0.68473541  0.11651889    -0.60800
In622      In  0.17000894  0.69584286  0.27211067     1.36900
C623        C  0.18479189  0.76088912  0.24163263     0.76900
O624        O  0.22806666  0.67188592  0.28176887    -0.61600
O625        O  0.20055447  0.66710707  0.22764241    -0.52500
C626        C  0.12152628  0.63959432  0.26762864     0.69600
O627        O  0.14520470  0.64356957  0.29453547    -0.47300
C628        C  0.13872958  0.73162923  0.32730866     0.74300
O629        O  0.20745900  0.74500326  0.26400183    -0.59200
O630        O  0.12271431  0.72515637  0.29609745    -0.49300
O631        O  0.15572020  0.74211654  0.23230471    -0.55600
C632        C  0.22992137  0.66154837  0.24766601     0.84400
O633        O  0.12358684  0.66428093  0.24268209    -0.57500
O634        O  0.17122695  0.71687634  0.33234737    -0.60800
C635        C  0.17204520  0.86424209  0.22349415     0.85800
C636        C  0.16046085  0.82400645  0.22909629    -0.54400
C637        C  0.19032966  0.79974496  0.23036842     0.08700
C638        C  0.22969005  0.81858862  0.22719963     0.19700
C639        C  0.19985138  0.87230525  0.25597336    -0.55200
C640        C  0.23001845  0.84850959  0.25879086     0.08800
C641        C  0.19627365  0.86367913  0.18842463    -0.54700
C642        C  0.22777389  0.84089593  0.19024251     0.09400
H643        H  0.13168767  0.81588283  0.23515984     0.13900
H644        H  0.25363478  0.79874441  0.22832216    -0.00400
H645        H  0.19478811  0.89482794  0.27562182     0.14200
H646        H  0.18908717  0.88129687  0.16492820     0.14000
In647      In  0.29136470  0.96629089  0.42241237     1.36900
C648        C  0.29488070  0.91073056  0.37157729     0.76900
O649        O  0.29320914  0.92784295  0.47155832    -0.61600
O650        O  0.24489548  0.96236214  0.46415686    -0.52500
C651        C  0.34244094  0.01046594  0.45591857     0.69600
O652        O  0.34610549  0.97566133  0.45552242    -0.47300
C653        C  0.24665634  0.01069289  0.38411504     0.74300
O654        O  0.32208687  0.93308861  0.37681589    -0.59200
O655        O  0.23839062  0.99890920  0.41622082    -0.49300
O656        O  0.26728142  0.91646416  0.39276001    -0.55600
C657        C  0.26129114  0.93798639  0.48368319     0.84400
O658        O  0.31637367  0.02218282  0.43472648    -0.57500
O659        O  0.27912317  0.00124444  0.37279268    -0.60800
In660      In  0.09644769  0.94957350  0.24552371     1.36900
C661        C  0.14079821  0.89318566  0.22350473     0.76900
O662        O  0.15022745  0.98025564  0.25620175    -0.61600
O663        O  0.10072105  0.99768000  0.28475119    -0.52500
C664        C  0.05020313  0.98806137  0.19968277     0.69600
O665        O  0.04268060  0.95591975  0.21086640    -0.47300
C666        C  0.06466577  0.92813425  0.30885444     0.74300
O667        O  0.14737600  0.92652070  0.21596214    -0.59200
O668        O  0.09993203  0.93202583  0.30575672    -0.49300
O669        O  0.10829797  0.88791157  0.23656010    -0.55600
C670        C  0.13594240  0.00102087  0.28096027     0.84400
O671        O  0.08365661  0.99777450  0.20717823    -0.57500
O672        O  0.04600707  0.93240836  0.27869736    -0.60800
C673        C  0.29435413  0.87906192  0.34332246     0.85800
C674        C  0.26109746  0.88094044  0.31489407    -0.54400
C675        C  0.25920645  0.85152485  0.28989252     0.08700
C676        C  0.29099683  0.82271930  0.29674796     0.19700
C677        C  0.28997047  0.84157942  0.36239827    -0.55200
C678        C  0.28757795  0.81217025  0.33829317     0.08800
C679        C  0.32953767  0.87502333  0.31888617    -0.54700
C680        C  0.32773995  0.84560440  0.29454022     0.09400
H681        H  0.24166338  0.90427316  0.31464332     0.13900
H682        H  0.29071534  0.79833474  0.27768051    -0.00400
H683        H  0.28907805  0.83849041  0.39267453     0.14200
H684        H  0.35320923  0.89418994  0.31983578     0.14000
In685      In  0.47979068  0.71655690  0.25255772     1.36900
C686        C  0.43520225  0.77538825  0.23575150     0.76900
O687        O  0.43432860  0.67348534  0.24490175    -0.61600
O688        O  0.47538922  0.66680990  0.28860378    -0.52500
C689        C  0.53236414  0.68627711  0.20829400     0.69600
O690        O  0.53989471  0.70984275  0.23341942    -0.47300
C691        C  0.50675617  0.73746653  0.31912594     0.74300
O692        O  0.42289252  0.74329051  0.24065178    -0.59200
O693        O  0.47380270  0.72457057  0.31487659    -0.49300
O694        O  0.47087119  0.77691689  0.23521480    -0.55600
C695        C  0.44485665  0.65559881  0.27358008     0.84400
O696        O  0.49734036  0.68273146  0.20173324    -0.57500
O697        O  0.52492805  0.74116157  0.28926908    -0.60800
In698      In  0.28451963  0.71209866  0.39284901     1.36900
C699        C  0.28597616  0.77422094  0.35299528     0.76900
O700        O  0.28634525  0.75074329  0.44205432    -0.61600
O701        O  0.32857819  0.70848493  0.43790742    -0.52500
C702        C  0.23148718  0.66924917  0.42268810     0.69600
O703        O  0.23799122  0.70167642  0.43412944    -0.47300
C704        C  0.32956873  0.66469797  0.35836456     0.74300
O705        O  0.25594492  0.75522360  0.35513396    -0.59200
O706        O  0.33457074  0.67576860  0.39164595    -0.49300
O707        O  0.31458823  0.76009093  0.36861709    -0.55600
C708        C  0.31518401  0.73528314  0.45651787     0.84400
O709        O  0.24597394  0.66208280  0.39135680    -0.57500
O710        O  0.30010630  0.67758605  0.34226992    -0.60800
C711        C  0.29714764  0.87748476  0.11675864     0.85800
C712        C  0.26151988  0.87423084  0.13985623    -0.54400
C713        C  0.25957895  0.84391037  0.16233269     0.08700
C714        C  0.29548591  0.81854062  0.15869589     0.19700
C715        C  0.32979255  0.87552927  0.14581734    -0.55200
C716        C  0.32949295  0.84488253  0.16772024     0.08800
C717        C  0.29992455  0.84092062  0.09433436    -0.54700
C718        C  0.29896259  0.80955431  0.11575142     0.09400
H719        H  0.24076200  0.89642731  0.13972370     0.13900
H720        H  0.29502838  0.79360677  0.17663109    -0.00400
H721        H  0.35133073  0.89680004  0.14916493     0.14200
H722        H  0.30266842  0.84002708  0.06363513     0.14000
In723      In  0.29206341  0.98294904  0.06891975     1.36900
C724        C  0.29601629  0.91348531  0.09508923     0.76900
O725        O  0.33890841  0.97266106  0.02901983    -0.61600
O726        O  0.35097445  0.00496913  0.07772697    -0.52500
C727        C  0.25638361  0.01254173  0.01015095     0.69600
O728        O  0.26508274  0.97863019  0.01134269    -0.47300
C729        C  0.27651825  0.01678793  0.13247749     0.74300
O730        O  0.26721731  0.92512415  0.07674858    -0.59200
O731        O  0.29814246  0.03014920  0.10826661    -0.49300
O732        O  0.32241225  0.93662643  0.09788280    -0.55600
C733        C  0.36374109  0.98795325  0.04965099     0.84400
O734        O  0.25992805  0.02926033  0.04110874    -0.57500
O735        O  0.25783306  0.98867394  0.12154952    -0.60800
In736      In  0.44257546  0.98621907  0.24836256     1.36900
C737        C  0.41858817  0.91562984  0.24189077     0.76900
O738        O  0.38491519  0.00031600  0.27007650    -0.61600
O739        O  0.40001157  0.01408505  0.21356618    -0.52500
C740        C  0.47456995  0.04718809  0.27701138     0.69600
O741        O  0.47050747  0.01843539  0.29726149    -0.47300
C742        C  0.50763685  0.97406807  0.21714566     0.74300
O743        O  0.42916995  0.92963342  0.27339404    -0.59200
O744        O  0.47906175  0.98542947  0.19833493    -0.49300
O745        O  0.42082822  0.93748722  0.21453590    -0.55600
C746        C  0.37476352  0.01342999  0.23848508     0.84400
O747        O  0.45958018  0.04470193  0.24465159    -0.57500
O748        O  0.50201056  0.96782178  0.25152912    -0.60800
C749        C  0.40904336  0.80880686  0.23390308     0.85800
C750        C  0.42907946  0.84676784  0.23688564    -0.54400
C751        C  0.40501654  0.87657377  0.23666396     0.08700
C752        C  0.36275219  0.86532994  0.23281583     0.19700
C753        C  0.38078636  0.80945195  0.26643370    -0.55200
C754        C  0.35672250  0.83911104  0.26586031     0.08800
C755        C  0.38374407  0.81041059  0.19834387    -0.54700
C756        C  0.35888817  0.83955796  0.19794038     0.09400
H757        H  0.45951128  0.84978654  0.24059414     0.13900
H758        H  0.34282121  0.88901626  0.23217940    -0.00400
H759        H  0.38001829  0.78850423  0.28809191     0.14200
H760        H  0.38479924  0.78990201  0.17591145     0.14000
In761      In  0.43501794  0.97536029  0.82154512     1.36900
C762        C  0.36427869  0.95638396  0.83397768     0.76900
O763        O  0.45190354  0.91709027  0.80576767    -0.61600
O764        O  0.45698668  0.93560015  0.86294272    -0.52500
C765        C  0.49466277  0.01732563  0.83177328     0.69600
O766        O  0.49237609  0.99229835  0.80673832    -0.47300
C767        C  0.41344678  0.02049804  0.76927856     0.74300
O768        O  0.38216332  0.95114990  0.80397541    -0.59200
O769        O  0.41050298  0.02760303  0.80400749    -0.49300
O770        O  0.38267109  0.97431138  0.85929541    -0.55600
C771        C  0.45948191  0.90905547  0.83964043     0.84400
O772        O  0.46743459  0.01797499  0.85489617    -0.57500
O773        O  0.42891253  0.98973442  0.76057481    -0.60800
In774      In  0.42130405  0.80447508  0.00385697     1.36900
C775        C  0.34981344  0.81110862  0.97717631     0.76900
O776        O  0.45157140  0.85828036  0.99420792    -0.61600
O777        O  0.42002380  0.85302909  0.04372950    -0.52500
C778        C  0.44529755  0.76496843  0.06236644     0.69600
O779        O  0.41466451  0.78292648  0.06229611    -0.47300
C780        C  0.45811177  0.79958842  0.94022627     0.74300
O781        O  0.36720811  0.78032444  0.97722605    -0.59200
O782        O  0.47275818  0.81253432  0.97004902    -0.49300
O783        O  0.36728343  0.83656995  0.99435194    -0.55600
C784        C  0.43969773  0.87368782  0.02345956     0.84400
O785        O  0.45938446  0.76078520  0.03038823    -0.57500
O786        O  0.42716531  0.78263477  0.94474414    -0.60800
In787      In  0.14240476  0.85245792  0.00537308     1.36900
C788        C  0.21087269  0.84852411  0.97237730     0.76900
O789        O  0.15935814  0.79949953  0.03088379    -0.61600
O790        O  0.10472463  0.80194741  0.00488514    -0.52500
C791        C  0.12017316  0.88107397  0.07097131     0.69600
O792        O  0.14912047  0.86086888  0.06741067    -0.47300
C793        C  0.09968082  0.86580271  0.94697525     0.74300
O794        O  0.18317243  0.82829261  0.96358566    -0.59200
O795        O  0.08993366  0.84499698  0.97323678    -0.49300
O796        O  0.20376428  0.87227643  0.99787257    -0.55600
C797        C  0.12871849  0.78317788  0.02291608     0.84400
O798        O  0.10775915  0.89375047  0.04024922    -0.57500
O799        O  0.12857964  0.88576479  0.95381431    -0.60800
In800      In  0.10088743  0.69410766  0.83041465     1.36900
C801        C  0.17310313  0.71559304  0.83596251     0.76900
O802        O  0.08942538  0.75195976  0.81282627    -0.61600
O803        O  0.07806976  0.73557644  0.86963908    -0.52500
C804        C  0.03684946  0.66513567  0.80386764     0.69600
O805        O  0.06429642  0.67209316  0.78207146    -0.47300
C806        C  0.11919540  0.62719297  0.84838155     0.74300
O807        O  0.15514720  0.71410638  0.80453414    -0.59200
O808        O  0.10636122  0.64992070  0.87267630    -0.49300
O809        O  0.15433442  0.70455799  0.86375074    -0.55600
C810        C  0.08012408  0.76149901  0.84582751     0.84400
O811        O  0.04139228  0.67697322  0.83723002    -0.57500
O812        O  0.12246378  0.63953000  0.81530699    -0.60800
C813        C  0.31390941  0.81922711  0.95457577     0.85800
C814        C  0.29866857  0.78690982  0.93069855    -0.54400
C815        C  0.26800938  0.79592297  0.90864548     0.08700
C816        C  0.25505661  0.83671793  0.91266254     0.19700
C817        C  0.32145951  0.84955846  0.92603881    -0.55200
C818        C  0.29113761  0.85939646  0.90362078     0.08800
C819        C  0.27984119  0.83349106  0.97687680    -0.54700
C820        C  0.24876123  0.84245061  0.95538968     0.09400
H821        H  0.31226549  0.75985230  0.92952751     0.13900
H822        H  0.22982017  0.84352623  0.89505128    -0.00400
H823        H  0.34962194  0.86100313  0.92371174     0.14200
H824        H  0.27924730  0.83378879  0.00776450     0.14000
C825        C  0.32602792  0.93779004  0.83868448     0.85800
C826        C  0.29087784  0.96100811  0.84573943    -0.54400
C827        C  0.25803081  0.94072351  0.84741932     0.08700
C828        C  0.26456772  0.89748590  0.84239260     0.19700
C829        C  0.32694209  0.90927504  0.87005669    -0.55200
C830        C  0.29477967  0.88812807  0.87322350     0.08800
C831        C  0.31561869  0.91652639  0.80290801    -0.54700
C832        C  0.28643858  0.89236009  0.80475272     0.09400
H833        H  0.29146179  0.99106359  0.84657979     0.13900
H834        H  0.23821032  0.88093560  0.84347556    -0.00400
H835        H  0.35149286  0.90743515  0.88851512     0.14200
H836        H  0.33111001  0.92038080  0.77736332     0.14000
C837        C  0.21344991  0.73037086  0.84073927     0.85800
C838        C  0.24387598  0.70017695  0.84753020    -0.54400
C839        C  0.28011131  0.71360803  0.85173161     0.08700
C840        C  0.28243527  0.75594587  0.84860804     0.19700
C841        C  0.21862518  0.75779652  0.87403050    -0.55200
C842        C  0.25489933  0.77075822  0.87817778     0.08800
C843        C  0.22745025  0.75197061  0.80672151    -0.54700
C844        C  0.26337818  0.76554778  0.81089679     0.09400
H845        H  0.23743297  0.67082210  0.84692032     0.13900
H846        H  0.31161775  0.76722109  0.85170140    -0.00400
H847        H  0.19598610  0.76565151  0.89287435     0.14200
H848        H  0.20987416  0.75762927  0.78212352     0.14000
In849      In  0.37136696  0.64618742  0.83077961     1.36900
C850        C  0.31448983  0.68974142  0.85222629     0.76900
O851        O  0.42077156  0.68570005  0.83505269    -0.61600
O852        O  0.41873221  0.64515697  0.79141015    -0.52500
C853        C  0.40131594  0.58752797  0.86539073     0.69600
O854        O  0.40399708  0.61975461  0.87958667    -0.47300
C855        C  0.33482868  0.63463863  0.76685259     0.74300
O856        O  0.31329757  0.65502914  0.85491332    -0.59200
O857        O  0.35825319  0.66062310  0.77129112    -0.49300
O858        O  0.34705225  0.70222022  0.84588096    -0.55600
C859        C  0.43568701  0.67269950  0.80555777     0.84400
O860        O  0.37866108  0.58569139  0.83795747    -0.57500
O861        O  0.33158215  0.61373508  0.79472846    -0.60800
In862      In  0.41258586  0.80714253  0.66100845     1.36900
C863        C  0.35336636  0.81197423  0.70880636     0.76900
O864        O  0.37640193  0.81775726  0.61051105    -0.61600
O865        O  0.39807526  0.76336871  0.61851018    -0.52500
C866        C  0.46304335  0.85193440  0.62840019     0.69600
O867        O  0.43223244  0.86478006  0.64121548    -0.47300
C868        C  0.45928602  0.76831465  0.70394978     0.74300
O869        O  0.37735173  0.83767521  0.70436656    -0.59200
O870        O  0.44606576  0.75626405  0.67303226    -0.49300
O871        O  0.35978849  0.78373862  0.68876838    -0.55600
C872        C  0.37923503  0.78514678  0.59777140     0.84400
O873        O  0.46765719  0.81782164  0.63361997    -0.57500
O874        O  0.44949342  0.80111704  0.71212134    -0.60800
In875      In  0.16500431  0.00976434  0.82894185     1.36900
C876        C  0.22114401  0.96129616  0.84713893     0.76900
O877        O  0.11456436  0.97201261  0.82849325    -0.61600
O878        O  0.12360573  0.00722538  0.78197301    -0.52500
C879        C  0.12790039  0.06294511  0.86721685     0.69600
O880        O  0.15500474  0.06901246  0.84567680    -0.47300
C881        C  0.20125054  0.04296642  0.77480764     0.74300
O882        O  0.19354507  0.95245082  0.82633015    -0.59200
O883        O  0.20454360  0.05291144  0.80871081    -0.49300
O884        O  0.21697618  0.99242483  0.86314824    -0.55600
C885        C  0.10393589  0.98192474  0.79598810     0.84400
O886        O  0.12372004  0.02892242  0.87425256    -0.57500
O887        O  0.18034177  0.01520127  0.76891641    -0.60800
In888      In  0.15395261  0.83883666  0.66620632     1.36900
C889        C  0.21237234  0.82526797  0.71235383     0.76900
O890        O  0.19375238  0.83644592  0.61862048    -0.61600
O891        O  0.17251575  0.88917569  0.63523441    -0.52500
C892        C  0.10438721  0.79630478  0.62939088     0.69600
O893        O  0.12801878  0.81671634  0.61385849    -0.47300
C894        C  0.10224669  0.88131916  0.69745056     0.74300
O895        O  0.18987974  0.85176157  0.71775039    -0.59200
O896        O  0.12276950  0.89192899  0.67093741    -0.49300
O897        O  0.20230133  0.80310450  0.68653209    -0.55600
C898        C  0.19295679  0.87085384  0.61276646     0.84400
O899        O  0.10911088  0.79340870  0.66444262    -0.57500
O900        O  0.10792534  0.84825480  0.70759711    -0.60800
C901        C  0.31838313  0.81593683  0.73371608     0.85800
C902        C  0.31852217  0.85208962  0.75608420    -0.54400
C903        C  0.28714978  0.85930702  0.77774091     0.08700
C904        C  0.25745177  0.82807776  0.77363241     0.19700
C905        C  0.31149669  0.78603863  0.76360404    -0.55200
C906        C  0.27916531  0.79224685  0.78403158     0.08800
C907        C  0.28157248  0.81697185  0.71061610    -0.54700
C908        C  0.24975873  0.82302082  0.73112342     0.09400
H909        H  0.34370763  0.86896334  0.75590411     0.13900
H910        H  0.23148376  0.83294725  0.79022465    -0.00400
H911        H  0.32929837  0.76164274  0.76709331     0.14200
H912        H  0.28075115  0.81356012  0.68029264     0.14000
C913        C  0.07267189  0.97186585  0.73503508    -0.09900
C914        C  0.07546158  0.96188874  0.77294132     0.06300
C915        C  0.06575386  0.92553096  0.78251582    -0.03600
C916        C  0.06793504  0.89773554  0.75508856    -0.08100
C917        C  0.07767803  0.90708120  0.71831833     0.05500
C918        C  0.07408395  0.94439350  0.70730990    -0.03100
Br919      Br  0.07729413  0.95979182  0.65603619    -0.02800
H920        H  0.07636617  0.00047650  0.72693506     0.09400
H921        H  0.06708285  0.86901572  0.76362173     0.07400
Br922      Br  0.05519149  0.91226330  0.83301316    -0.03200
C923        C  0.48143322  0.70604605  0.72114366    -0.09900
C924        C  0.47954325  0.74379122  0.73049316     0.06300
C925        C  0.48362128  0.75410736  0.76848436    -0.03600
C926        C  0.47553334  0.72801951  0.79598821    -0.08100
C927        C  0.46607070  0.69161189  0.78520548     0.05500
C928        C  0.47528511  0.67957377  0.74856953    -0.03100
Br929      Br  0.47297702  0.62863632  0.73240434    -0.02800
H930        H  0.48190176  0.69725688  0.69201956     0.09400
H931        H  0.47207371  0.73730111  0.82471346     0.07400
Br932      Br  0.49637284  0.80367356  0.78336749    -0.03200
C933        C  0.11110871  0.85375833  0.88100319    -0.09900
C934        C  0.08414801  0.85887968  0.90913993     0.06300
C935        C  0.04924231  0.84015757  0.90566522    -0.03600
C936        C  0.04589932  0.81014351  0.88081430    -0.08100
C937        C  0.07612773  0.80037860  0.85766108     0.05500
C938        C  0.10731481  0.82453949  0.85520112    -0.03100
Br939      Br  0.14918070  0.81471350  0.82281911    -0.02800
H940        H  0.13787215  0.86841618  0.88265994     0.09400
H941        H  0.02127182  0.79237511  0.88217612     0.07400
Br942      Br  0.00854529  0.84995658  0.93948928    -0.03200
C943        C  0.49985771  0.86667829  0.87666040    -0.09900
C944        C  0.46844981  0.87138791  0.85265446     0.06300
C945        C  0.44166867  0.84261150  0.84923141    -0.03600
C946        C  0.44337239  0.81282255  0.87408158    -0.08100
C947        C  0.47082116  0.81211319  0.90307573     0.05500
C948        C  0.50188505  0.83658778  0.90099971    -0.03100
Br949      Br  0.54517105  0.83348459  0.93419333    -0.02800
H950        H  0.52133177  0.88801696  0.87865799     0.09400
H951        H  0.41995446  0.79348512  0.87411227     0.07400
Br952      Br  0.39920988  0.84510360  0.81521161    -0.03200
C953        C  0.41641212  0.97124520  0.00903776    -0.09900
C954        C  0.40399142  0.97874747  0.04547551     0.06300
C955        C  0.42144104  0.95969761  0.07551585    -0.03600
C956        C  0.43968756  0.92606892  0.06815335    -0.08100
C957        C  0.44347162  0.91362911  0.03107496     0.05500
C958        C  0.43728819  0.93904057  0.00176701    -0.03100
Br959      Br  0.44987317  0.92818596  0.95074886    -0.02800
H960        H  0.40499102  0.98696589  0.98567261     0.09400
H961        H  0.44649637  0.90774023  0.09122694     0.07400
Br962      Br  0.41245841  0.97265197  0.12691718    -0.03200
C963        C  0.27933191  0.99928785  0.19852361    -0.09900
C964        C  0.28036007  0.02802747  0.17226495     0.06300
C965        C  0.30200445  0.05972981  0.18130871    -0.03600
C966        C  0.33060984  0.05724791  0.20871965    -0.08100
C967        C  0.33575623  0.02437999  0.22876605     0.05500
C968        C  0.30723858  0.99723404  0.22678929    -0.03100
Br969      Br  0.30918286  0.95393801  0.25731649    -0.02800
H970        H  0.26149687  0.97534897  0.19334999     0.09400
H971        H  0.35144985  0.07914165  0.21117373     0.07400
Br972      Br  0.29861578  0.10400899  0.15212684    -0.03200
C973        C  0.33300237  0.78554912  0.50059750    -0.09900
C974        C  0.33174148  0.74757672  0.49245430     0.06300
C975        C  0.34578536  0.72211448  0.51894131    -0.03600
C976        C  0.36097319  0.73502971  0.55300552    -0.08100
C977        C  0.36237760  0.77314546  0.56140830     0.05500
C978        C  0.34839559  0.79855926  0.53450496    -0.03100
Br979      Br  0.34990200  0.85131402  0.54106704    -0.02800
H980        H  0.32238374  0.80528292  0.48021348     0.09400
H981        H  0.37148904  0.71505793  0.57312849     0.07400
Br982      Br  0.34267065  0.66942385  0.51113638    -0.03200
C983        C  0.42500508  0.62824258  0.33192866    -0.09900
C984        C  0.41981175  0.62962470  0.29297214     0.06300
C985        C  0.38315236  0.62365528  0.27847159    -0.03600
C986        C  0.35200638  0.63147455  0.30117003    -0.08100
C987        C  0.35805459  0.64163280  0.33896811     0.05500
C988        C  0.39434901  0.63503631  0.35528520    -0.03100
Br989      Br  0.40588159  0.63998348  0.40797804    -0.02800
H990        H  0.45336649  0.62906546  0.34405901     0.09400
H991        H  0.32375343  0.63185826  0.28892447     0.07400
Br992      Br  0.37603426  0.60603003  0.22817331    -0.03200
C993        C  0.25516192  0.88596627  0.52800315    -0.09900
C994        C  0.24436713  0.92191098  0.51752957     0.06300
C995        C  0.21742182  0.94115350  0.53930470    -0.03600
C996        C  0.20218061  0.92434304  0.57080975    -0.08100
C997        C  0.21259970  0.88817377  0.58104129     0.05500
C998        C  0.23967121  0.86894889  0.55930049    -0.03100
Br999      Br  0.25684291  0.81948386  0.57022737    -0.02800
H1000       H  0.27507482  0.87055057  0.51105714     0.09400
H1001       H  0.18131232  0.93948727  0.58692282     0.07400
Br1002     Br  0.20016667  0.99045592  0.52816692    -0.03200
C1003       C  0.18048549  0.02832642  0.37163682    -0.09900
C1004       C  0.21824065  0.02903838  0.35989606     0.06300
C1005       C  0.22564656  0.03587034  0.32189218    -0.03600
C1006       C  0.19627889  0.03223536  0.29547443    -0.08100
C1007       C  0.15971179  0.02281378  0.30690625     0.05500
C1008       C  0.15104348  0.02449682  0.34544135    -0.03100
Br1009     Br  0.10198123  0.01299321  0.36508733    -0.02800
H1010       H  0.17414862  0.02490087  0.40103501     0.09400
H1011       H  0.20291858  0.03267766  0.26590759     0.07400
Br1012     Br  0.27556066  0.04583346  0.30409356    -0.03200
C1013       C  0.16409083  0.69310893  0.02055852    -0.09900
C1014       C  0.17827037  0.69584685  0.05741626     0.06300
C1015       C  0.15719976  0.71533129  0.08447905    -0.03600
C1016       C  0.12820280  0.73892042  0.07230161    -0.08100
C1017       C  0.12318995  0.74488575  0.03378538     0.05500
C1018       C  0.13622462  0.71792508  0.00841055    -0.03100
Br1019     Br  0.12708346  0.72244890  0.95549025    -0.02800
H1020       H  0.17951949  0.67718749  0.99980316     0.09400
H1021       H  0.11677041  0.75884806  0.09213638     0.07400
Br1022     Br  0.17415828  0.72014302  0.13574959    -0.03200
C1023       C  0.28838719  0.61734593  0.17461595    -0.09900
C1024       C  0.31194974  0.64778460  0.16793269     0.06300
C1025       C  0.31826631  0.67368998  0.19728019    -0.03600
C1026       C  0.29485130  0.67337316  0.22856686    -0.08100
C1027       C  0.26471233  0.64829875  0.23007655     0.05500
C1028       C  0.26311994  0.61858869  0.20429694    -0.03100
Br1029     Br  0.22188116  0.58402430  0.20346053    -0.02800
H1030       H  0.28389655  0.59668124  0.15273663     0.09400
H1031       H  0.29646964  0.69621564  0.24850265     0.07400
Br1032     Br  0.35193917  0.71481306  0.19267868    -0.03200
C1033       C  0.34937031  0.57373692  0.95214686    -0.09900
C1034       C  0.32131840  0.57210743  0.92358812     0.06300
C1035       C  0.29483938  0.60173168  0.92178605    -0.03600
C1036       C  0.29631554  0.63119084  0.94799536    -0.08100
C1037       C  0.32324973  0.63227052  0.97762225     0.05500
C1038       C  0.35072790  0.60332420  0.97865774    -0.03100
Br1039     Br  0.39050906  0.60198414  0.01591887    -0.02800
H1040       H  0.36994081  0.55144577  0.95439266     0.09400
H1041       H  0.27450380  0.65238927  0.94637504     0.07400
Br1042     Br  0.25220985  0.60122677  0.88749615    -0.03200
C1043       C  0.16763375  0.54698101  0.89632257    -0.09900
C1044       C  0.17638528  0.52536591  0.86459323     0.06300
C1045       C  0.15730529  0.53256154  0.83030489    -0.03600
C1046       C  0.13480265  0.56415815  0.82712921    -0.08100
C1047       C  0.13153174  0.58925463  0.85719247     0.05500
C1048       C  0.14596819  0.57930189  0.89281013    -0.03100
Br1049     Br  0.14317214  0.61118152  0.93615875    -0.02800
H1050       H  0.18152674  0.54147734  0.92302347     0.09400
H1051       H  0.12252753  0.57078296  0.79993019     0.07400
Br1052     Br  0.16426088  0.50373360  0.78521357    -0.03200
C1053       C  0.26245678  0.36788272  0.93971550    -0.09900
C1054       C  0.28334676  0.37455328  0.90725254     0.06300
C1055       C  0.28432155  0.34654837  0.87929899    -0.03600
C1056       C  0.25731033  0.31816912  0.87958961    -0.08100
C1057       C  0.22935704  0.31830462  0.90713677     0.05500
C1058       C  0.23601635  0.33912822  0.94013873    -0.03100
Br1059     Br  0.20274438  0.33557139  0.98203563    -0.02800
H1060       H  0.26243687  0.38816305  0.96231642     0.09400
H1061       H  0.25388009  0.30085533  0.85476413     0.07400
Br1062     Br  0.31548271  0.34999312  0.83603371    -0.03200
C1063       C  0.20665599  0.61870250  0.51121615    -0.09900
C1064       C  0.21808682  0.58277806  0.50109827     0.06300
C1065       C  0.22329377  0.57441168  0.46291755    -0.03600
C1066       C  0.22131552  0.60266351  0.43619853    -0.08100
C1067       C  0.21563864  0.63988616  0.44709066     0.05500
C1068       C  0.20543005  0.64725833  0.48474786    -0.03100
Br1069     Br  0.19414274  0.69614120  0.50330388    -0.02800
H1070       H  0.20263874  0.62552509  0.54057486     0.09400
H1071       H  0.22867945  0.59594881  0.40752917     0.07400
Br1072     Br  0.23813408  0.52570878  0.44676922    -0.03200
C1073       C  0.32906929  0.64301095  0.69833624    -0.09900
C1074       C  0.31405014  0.62860763  0.73140510     0.06300
C1075       C  0.28075087  0.60712487  0.72942152    -0.03600
C1076       C  0.26597526  0.59680394  0.69448744    -0.08100
C1077       C  0.28410092  0.60719373  0.66149330     0.05500
C1078       C  0.31428720  0.63238945  0.66339517    -0.03100
Br1079     Br  0.33718795  0.65146441  0.61917759    -0.02800
H1080       H  0.35376200  0.66078419  0.69948752     0.09400
H1081       H  0.24233609  0.57769420  0.69335841     0.07400
Br1082     Br  0.25467442  0.58976785  0.77283961    -0.03200
C1083       C  0.37275871  0.45948730  0.51600664    -0.09900
C1084       C  0.33739051  0.44938993  0.53027937     0.06300
C1085       C  0.32859433  0.41135767  0.53309708    -0.03600
C1086       C  0.35661728  0.38479611  0.52620226    -0.08100
C1087       C  0.39388369  0.39539811  0.51821922     0.05500
C1088       C  0.40090340  0.43280971  0.50964094    -0.03100
Br1089     Br  0.44937850  0.44961313  0.49288979    -0.02800
H1090       H  0.37952686  0.48847215  0.51232600     0.09400
H1091       H  0.35041801  0.35612871  0.53228030     0.07400
Br1092     Br  0.28175051  0.39346155  0.55290365    -0.03200
C1093       C  0.27185501  0.04955527  0.91338795    -0.09900
C1094       C  0.25651147  0.08545391  0.91681968     0.06300
C1095       C  0.23378214  0.09366682  0.94807436    -0.03600
C1096       C  0.23000222  0.06736708  0.97658527    -0.08100
C1097       C  0.24887882  0.03294671  0.97487031     0.05500
C1098       C  0.26872131  0.02360795  0.94199922    -0.03100
Br1099     Br  0.29873776  0.97921742  0.93725115    -0.02800
H1100       H  0.28947883  0.04268252  0.88971009     0.09400
H1101       H  0.21496665  0.07514625  0.00174225     0.07400
Br1102     Br  0.21200671  0.14177747  0.95643303    -0.03200
C1103       C  0.41189465  0.08164778  0.74321835    -0.09900
C1104       C  0.39617426  0.04601842  0.74245388     0.06300
C1105       C  0.35649900  0.04291967  0.73963417    -0.03600
C1106       C  0.33409015  0.07240464  0.75227288    -0.08100
C1107       C  0.35158143  0.10539460  0.76407499     0.05500
C1108       C  0.38953936  0.11171219  0.75441367    -0.03100
Br1109     Br  0.41288098  0.15932188  0.76167662    -0.02800
H1110       H  0.44241351  0.08495283  0.74274979     0.09400
H1111       H  0.30444616  0.06761383  0.75790045     0.07400
Br1112     Br  0.33332027  0.99545719  0.73205118    -0.03200
C1113       C  0.41298406  0.21578115  0.91819034    -0.09900
C1114       C  0.37443093  0.22481684  0.92149575     0.06300
C1115       C  0.36453593  0.26240878  0.92595864    -0.03600
C1116       C  0.38966259  0.28958424  0.91384431    -0.08100
C1117       C  0.42552172  0.27902653  0.90071721     0.05500
C1118       C  0.43873786  0.24283888  0.90780887    -0.03100
Br1119     Br  0.49046069  0.22813177  0.90009188    -0.02800
H1120       H  0.42206067  0.18705714  0.91788385     0.09400
H1121       H  0.38003221  0.31805880  0.91176844     0.07400
Br1122     Br  0.31648239  0.27698202  0.94561047    -0.03200
C1123       C  0.36598281  0.05330180  0.54897580    -0.09900
C1124       C  0.36432460  0.09094886  0.53964313     0.06300
C1125       C  0.36741312  0.10087943  0.50174003    -0.03600
C1126       C  0.36553197  0.07332879  0.47369309    -0.08100
C1127       C  0.36185792  0.03570181  0.48302713     0.05500
C1128       C  0.36554516  0.02567667  0.52111114    -0.03100
Br1129     Br  0.36283447  0.97523281  0.53751039    -0.02800
H1130       H  0.36367664  0.04528768  0.57805534     0.09400
H1131       H  0.36324107  0.08161138  0.44462659     0.07400
Br1132     Br  0.36782375  0.15182186  0.48686385    -0.03200
C1133       C  0.22970917  0.04199053  0.71190025    -0.09900
C1134       C  0.21989594  0.06223836  0.74422940     0.06300
C1135       C  0.22684253  0.10066998  0.74600349    -0.03600
C1136       C  0.24525918  0.11763658  0.71655746    -0.08100
C1137       C  0.25543082  0.09724987  0.68470505     0.05500
C1138       C  0.24708477  0.05939671  0.68194628    -0.03100
Br1139     Br  0.25857211  0.03085878  0.63787994    -0.02800
H1140       H  0.22380521  0.01259153  0.70990215     0.09400
H1141       H  0.25052152  0.14717407  0.71793463     0.07400
Br1142     Br  0.20828657  0.13220015  0.78548152    -0.03200
C1143       C  0.22997661  0.29219578  0.53176774    -0.09900
C1144       C  0.19427725  0.27870715  0.52052320     0.06300
C1145       C  0.19176246  0.24265067  0.50537892    -0.03600
C1146       C  0.22165737  0.21784178  0.51158784    -0.08100
C1147       C  0.25432548  0.22940624  0.53135735     0.05500
C1148       C  0.26013098  0.26765891  0.53770462    -0.03100
Br1149     Br  0.30455394  0.28714102  0.56276521    -0.02800
H1150       H  0.23282847  0.32041305  0.54203074     0.09400
H1151       H  0.21761373  0.18877212  0.50482334     0.07400
Br1152     Br  0.14637255  0.22494125  0.48092920    -0.03200
C1153       C  0.57275647  0.08040766  0.79821531    -0.09900
C1154       C  0.57184806  0.10920518  0.82498208     0.06300
C1155       C  0.54881581  0.10492669  0.85671151    -0.03600
C1156       C  0.52533494  0.07377820  0.85941289    -0.08100
C1157       C  0.52482800  0.04596863  0.83148834     0.05500
C1158       C  0.55013972  0.04902002  0.80123006    -0.03100
Br1159     Br  0.55528801  0.01264076  0.76174582    -0.02800
H1160       H  0.59109192  0.08229590  0.77421199     0.09400
H1161       H  0.50667232  0.07179158  0.88314893     0.07400
Br1162     Br  0.54783067  0.14002775  0.89741331    -0.03200
C1163       C  0.53479036  0.26062148  0.72367293    -0.09900
C1164       C  0.54662535  0.29339815  0.74199980     0.06300
C1165       C  0.58439230  0.30513994  0.73706808    -0.03600
C1166       C  0.61052839  0.28132414  0.71986266    -0.08100
C1167       C  0.60039797  0.24430266  0.71387117     0.05500
C1168       C  0.56174604  0.23716744  0.70705318    -0.03100
Br1169     Br  0.54661300  0.18949684  0.68834452    -0.02800
H1170       H  0.50551367  0.25183344  0.72496562     0.09400
H1171       H  0.64030973  0.28853307  0.72141873     0.07400
Br1172     Br  0.60426392  0.34834335  0.76098143    -0.03200
C1173       C  0.73612030  0.08964581  0.90224401    -0.09900
C1174       C  0.77245527  0.10549785  0.90248375     0.06300
C1175       C  0.78739568  0.11556476  0.86781851    -0.03600
C1176       C  0.76223238  0.12483088  0.83855404    -0.08100
C1177       C  0.72321079  0.12070520  0.84367775     0.05500
C1178       C  0.71091677  0.09784322  0.87287676    -0.03100
Br1179     Br  0.65889422  0.08295656  0.87682767    -0.02800
H1180       H  0.72489372  0.07794146  0.92762273     0.09400
H1181       H  0.77254147  0.13913420  0.81438720     0.07400
Br1182     Br  0.84064499  0.12320477  0.86287463    -0.03200
C1183       C  0.45690454  0.49751262  0.85724927    -0.09900
C1184       C  0.48972740  0.50612957  0.87835745     0.06300
C1185       C  0.48864364  0.53772634  0.90211024    -0.03600
C1186       C  0.45710121  0.56183029  0.90101478    -0.08100
C1187       C  0.42660686  0.55576043  0.87579359     0.05500
C1188       C  0.42606933  0.52197758  0.85510297    -0.03100
Br1189     Br  0.38731961  0.50883590  0.81898575    -0.02800
H1190       H  0.45655685  0.47321967  0.83913253     0.09400
H1191       H  0.45804516  0.58708803  0.91767400     0.07400
Br1192     Br  0.53014216  0.55104923  0.93473347    -0.03200
C1193       C  0.52207376  0.44042255  0.70874080    -0.09900
C1194       C  0.55977467  0.43433172  0.72027939     0.06300
C1195       C  0.58466576  0.41564714  0.69573445    -0.03600
C1196       C  0.56965648  0.39745707  0.66404417    -0.08100
C1197       C  0.53149400  0.40213346  0.65374488     0.05500
C1198       C  0.50814877  0.42549400  0.67523904    -0.03100
Br1199     Br  0.45585295  0.43487591  0.66252164    -0.02800
H1200       H  0.50285334  0.45598395  0.72640705     0.09400
H1201       H  0.58770259  0.37956095  0.64747067     0.07400
Br1202     Br  0.63879207  0.41430545  0.70314274    -0.03200
C1203       C  0.68773440  0.54437986  0.79789442    -0.09900
C1204       C  0.64909239  0.54518943  0.78766113     0.06300
C1205       C  0.63932359  0.55385979  0.75011393    -0.03600
C1206       C  0.66653247  0.54914203  0.72251040    -0.08100
C1207       C  0.70335019  0.53767043  0.73235942     0.05500
C1208       C  0.71517437  0.54109739  0.77012299    -0.03100
Br1209     Br  0.76731514  0.53746011  0.78518942    -0.02800
H1210       H  0.69628096  0.54069234  0.82695465     0.09400
H1211       H  0.65760702  0.54986823  0.69330305     0.07400
Br1212     Br  0.58826932  0.56421826  0.73343192    -0.03200
C1213       C  0.11007960  0.12988325  0.86787451    -0.09900
C1214       C  0.10103535  0.09342107  0.87818839     0.06300
C1215       C  0.06387902  0.08671522  0.89088612    -0.03600
C1216       C  0.03610152  0.11488637  0.88895389    -0.08100
C1217       C  0.04435737  0.15031188  0.87503700     0.05500
C1218       C  0.08243477  0.15797144  0.86592143    -0.03100
Br1219     Br  0.09802440  0.20419312  0.84491834    -0.02800
H1220       H  0.13834116  0.13603727  0.85825063     0.09400
H1221       H  0.00724033  0.10835326  0.89640927     0.07400
Br1222     Br  0.04807212  0.03910868  0.90823380    -0.03200
C1223       C  0.02260533  0.22201047  0.70045010    -0.09900
C1224       C  0.01451948  0.24696373  0.72973547     0.06300
C1225       C  0.01856586  0.28527130  0.72398889    -0.03600
C1226       C  0.03093002  0.29780574  0.68964528    -0.08100
C1227       C  0.04073388  0.27305023  0.66069590     0.05500
C1228       C  0.03631903  0.23460743  0.66624775    -0.03100
Br1229     Br  0.04891548  0.19781162  0.62916723    -0.02800
H1230       H  0.01893853  0.19250949  0.70445716     0.09400
H1231       H  0.03426020  0.32742303  0.68627706     0.07400
Br1232     Br  0.00682921  0.32257283  0.76104041    -0.03200
C1233       C  0.86574719  0.14361391  0.75306935    -0.09900
C1234       C  0.86437654  0.16801481  0.78394429     0.06300
C1235       C  0.83033418  0.18739092  0.79134950    -0.03600
C1236       C  0.80034471  0.18539399  0.76550020    -0.08100
C1237       C  0.80368037  0.16448558  0.73241731     0.05500
C1238       C  0.83563244  0.14172601  0.72730372    -0.03100
Br1239     Br  0.84067215  0.11017106  0.68401053    -0.02800
H1240       H  0.89147930  0.12818108  0.74733706     0.09400
H1241       H  0.77578875  0.20309012  0.76963699     0.07400
Br1242     Br  0.82402111  0.22074594  0.83320163    -0.03200
C1243       C  0.97742757  0.58212752  0.77280535    -0.09900
C1244       C  0.94754899  0.58498607  0.79842791     0.06300
C1245       C  0.94289756  0.61898031  0.81795262    -0.03600
C1246       C  0.97032337  0.64681288  0.81547335    -0.08100
C1247       C  0.00301337  0.64193031  0.79389211     0.05500
C1248       C  0.00512471  0.61011097  0.77046797    -0.03100
Br1249     Br  0.04753515  0.60072113  0.73866599    -0.02800
H1250       H  0.98139780  0.55656953  0.75714005     0.09400
H1251       H  0.96744476  0.67140001  0.83291120     0.07400
Br1252     Br  0.90101115  0.62850181  0.85057272    -0.03200
C1253       C  0.01634265  0.44539561  0.90913691    -0.09900
C1254       C  0.01076677  0.47086774  0.88022024     0.06300
C1255       C  0.04163459  0.48060833  0.85779234    -0.03600
C1256       C  0.07437169  0.45879980  0.85848854    -0.08100
C1257       C  0.07716022  0.42868394  0.88280881     0.05500
C1258       C  0.04972939  0.42442571  0.91090102    -0.03100
Br1259     Br  0.05269180  0.38588918  0.94762511    -0.02800
H1260       H  0.99311888  0.43847259  0.92733913     0.09400
H1261       H  0.09608055  0.46331652  0.83784989     0.07400
Br1262     Br  0.03888865  0.52126302  0.82362208    -0.03200
C1263       C  0.78936086  0.54792768  0.89323727    -0.09900
C1264       C  0.79657591  0.51606753  0.87172110     0.06300
C1265       C  0.76926282  0.48767975  0.87044596    -0.03600
C1266       C  0.74060204  0.48744541  0.89709594    -0.08100
C1267       C  0.74084458  0.51449983  0.92555425     0.05500
C1268       C  0.75923911  0.54814582  0.91827086    -0.03100
Br1269     Br  0.75130624  0.59071526  0.94969346    -0.02800
H1270       H  0.80872587  0.57113052  0.89285420     0.09400
H1271       H  0.72414352  0.46240050  0.90022337     0.07400
Br1272     Br  0.77383934  0.44567058  0.83798623    -0.03200
C1273       C  0.00068769  0.31070308  0.89785436    -0.09900
C1274       C  0.03263559  0.28746833  0.90249819     0.06300
C1275       C  0.03433274  0.26465873  0.93454025    -0.03600
C1276       C  0.00727643  0.26867301  0.96274628    -0.08100
C1277       C  0.97845687  0.29558293  0.96039602     0.05500
C1278       C  0.97423927  0.31553800  0.92661883    -0.03100
Br1279     Br  0.93778435  0.35488729  0.92067536    -0.02800
H1280       H  0.99853592  0.32854562  0.87364746     0.09400
H1281       H  0.01065823  0.25261333  0.98810475     0.07400
Br1282     Br  0.07453211  0.22972248  0.94355119    -0.03200
C1283       C  0.94570012  0.47219107  0.02246229    -0.09900
C1284       C  0.95047660  0.45417074  0.05689145     0.06300
C1285       C  0.93168305  0.46919642  0.08826486    -0.06000
C1286       C  0.89836804  0.48918492  0.08179709    -0.08100
C1287       C  0.88593263  0.49529978  0.04487544     0.05500
C1288       C  0.91259374  0.49273085  0.01601668    -0.03100
Br1289     Br  0.90099210  0.50765082  0.96579029    -0.02800
H1290       H  0.96232207  0.46348698  0.99860649     0.09400
H1291       H  0.87895528  0.49314773  0.10465450     0.07400
Br1292     Br  0.94120709  0.45252189  0.13858809    -0.03200
C1293       C  0.03961422  0.57547830  0.23816887    -0.09900
C1294       C  0.03927845  0.55019100  0.26785642     0.06300
C1295       C  0.06650249  0.55453660  0.29721102    -0.03600
C1296       C  0.09305039  0.58333442  0.29600879    -0.08100
C1297       C  0.09336056  0.60871045  0.26629639     0.05500
C1298       C  0.06608193  0.60430810  0.23702587    -0.03100
Br1299     Br  0.06251717  0.63629422  0.19443077    -0.02800
H1300       H  0.01890456  0.57299061  0.21552182     0.09400
H1301       H  0.11332431  0.58616405  0.31899561     0.07400
Br1302     Br  0.06839749  0.52382129  0.34099305    -0.03200
C1303       C  0.95572153  0.32848532  0.18823571    -0.09900
C1304       C  0.98352191  0.33188575  0.16064931     0.06300
C1305       C  0.01589746  0.35363229  0.16903863    -0.03600
C1306       C  0.01582258  0.37741064  0.20024123    -0.08100
C1307       C  0.98450012  0.37896202  0.22385686     0.05500
C1308       C  0.95548495  0.35250343  0.21925595    -0.03100
Br1309     Br  0.91108536  0.35305010  0.24981816    -0.02800
H1310       H  0.93093369  0.31148148  0.18286181     0.09400
H1311       H  0.03855091  0.39729711  0.20391614     0.07400
Br1312     Br  0.05851211  0.35625309  0.13626098    -0.03200
C1313       C  0.59250076  0.26135577  0.48768484    -0.09900
C1314       C  0.57713730  0.26621754  0.45142533     0.06300
C1315       C  0.53736914  0.26401608  0.44636092    -0.03600
C1316       C  0.51392465  0.26446834  0.47769989    -0.08100
C1317       C  0.52969376  0.26788753  0.51385446     0.05500
C1318       C  0.56903627  0.26304775  0.51893410    -0.03100
Br1319     Br  0.59225035  0.26533511  0.56795014    -0.02800
H1320       H  0.62293379  0.26215311  0.49230236     0.09400
H1321       H  0.48358687  0.26773968  0.47350135     0.07400
Br1322     Br  0.51339099  0.26636833  0.39773001    -0.03200
C1323       C  0.65671489  0.39397104  0.52503628    -0.09900
C1324       C  0.68197465  0.38487199  0.49634574     0.06300
C1325       C  0.72096157  0.39185825  0.50190200    -0.03600
C1326       C  0.73406321  0.40643540  0.53614493    -0.08100
C1327       C  0.70894103  0.41540937  0.56509050     0.05500
C1328       C  0.66971126  0.40938535  0.55901772    -0.03100
Br1329     Br  0.63214876  0.42124922  0.59543233    -0.02800
H1330       H  0.62660455  0.38905452  0.52101140     0.09400
H1331       H  0.76413422  0.41180722  0.53968589     0.07400
Br1332     Br  0.75730838  0.38551079  0.46277876    -0.03200
C1333       C  0.58440438  0.59937751  0.17776570    -0.09900
C1334       C  0.62200247  0.60916462  0.18686071     0.06300
C1335       C  0.63018242  0.64709934  0.19326596    -0.03600
C1336       C  0.60045558  0.67294085  0.19607305    -0.08100
C1337       C  0.56233780  0.66200943  0.19211564     0.05500
C1338       C  0.55467556  0.62516986  0.18052355    -0.03100
Br1339     Br  0.50415250  0.60623782  0.17387980    -0.02800
H1340       H  0.57737087  0.57060754  0.17235675     0.09400
H1341       H  0.60712083  0.70123304  0.20411706     0.07400
Br1342     Br  0.68090716  0.66519819  0.20116184    -0.03200
C1343       C  0.58458703  0.48295256  0.32921935    -0.09900
C1344       C  0.58966376  0.47432887  0.29113918     0.06300
C1345       C  0.57589881  0.44036799  0.27723241    -0.03600
C1346       C  0.56860222  0.41185386  0.30229270    -0.08100
C1347       C  0.57389625  0.41810097  0.34093407     0.05500
C1348       C  0.57530278  0.45502192  0.35421497    -0.03100
Br1349     Br  0.57088639  0.46778102  0.40644455    -0.02800
H1350       H  0.59214461  0.51003164  0.34030391     0.09400
H1351       H  0.56398445  0.38408061  0.29138649     0.07400
Br1352     Br  0.56904467  0.43174216  0.22470173    -0.03200
C1353       C  0.00066024  0.07781007  0.17204967    -0.09900
C1354       C  0.96341012  0.07010932  0.18326577     0.06300
C1355       C  0.95410619  0.03273911  0.19059932    -0.03600
C1356       C  0.98245759  0.00540528  0.19128997    -0.08100
C1357       C  0.02058144  0.01410625  0.18502487     0.05500
C1358       C  0.02908521  0.05024934  0.17267160    -0.03100
Br1359     Br  0.07914345  0.06415171  0.15783420    -0.02800
H1360       H  0.00850028  0.10595713  0.16543394     0.09400
H1361       H  0.97492830  0.97771903  0.19991206     0.07400
Br1362     Br  0.90391779  0.01696582  0.20290713    -0.03200
C1363       C  0.96759799  0.38697478  0.51084266    -0.09900
C1364       C  0.97277982  0.38588423  0.47176764     0.06300
C1365       C  0.00998399  0.38959668  0.45812936    -0.03600
C1366       C  0.04099817  0.38631932  0.48301909    -0.08100
C1367       C  0.03540013  0.38172484  0.52151376     0.05500
C1368       C  0.99864777  0.38551052  0.53571771    -0.03100
Br1369     Br  0.98928290  0.38291518  0.58852636    -0.02800
H1370       H  0.93927869  0.38533448  0.52206959     0.09400
H1371       H  0.06938359  0.38425116  0.47193268     0.07400
Br1372     Br  0.02063614  0.39463530  0.40586835    -0.03200
C1373       C  0.80009148  0.23202071  0.52503083    -0.09900
C1374       C  0.79125292  0.25603495  0.55481181     0.06300
C1375       C  0.80062607  0.29377689  0.55245846    -0.03600
C1376       C  0.81948654  0.30670338  0.52096128    -0.08100
C1377       C  0.82934582  0.28255095  0.49141737     0.05500
C1378       C  0.81858296  0.24497666  0.49327237    -0.03100
Br1379     Br  0.82643373  0.21043259  0.45282020    -0.02800
H1380       H  0.79235592  0.20304672  0.52641715     0.09400
H1381       H  0.82750199  0.33562699  0.52014291     0.07400
Br1382     Br  0.79115829  0.32808789  0.59277649    -0.03200
C1383       C  0.98138187  0.22998316  0.35813626    -0.09900
C1384       C  0.97459828  0.26713100  0.34907308     0.06300
C1385       C  0.98547103  0.27932445  0.31341118    -0.03600
C1386       C  0.98876103  0.25335575  0.28417427    -0.08100
C1387       C  0.98561998  0.21546104  0.29201955     0.05500
C1388       C  0.98974536  0.20441671  0.32976670    -0.03100
Br1389     Br  0.00050709  0.15406801  0.34351031    -0.02800
H1390       H  0.97716874  0.22027900  0.38641488     0.09400
H1391       H  0.98985657  0.26284185  0.25547270     0.07400
Br1392     Br  0.99606671  0.33029511  0.30423960    -0.03200
C1393       C  0.60542354  0.36028727  0.95063420    -0.09900
C1394       C  0.60300768  0.39394051  0.97031972     0.06300
C1395       C  0.57525814  0.41990949  0.95895071    -0.03600
C1396       C  0.55137527  0.41217281  0.92763787    -0.08100
C1397       C  0.55342927  0.37787121  0.90841304     0.05500
C1398       C  0.57970690  0.35115043  0.92198519    -0.03100
Br1399     Br  0.57754680  0.29923109  0.90902327    -0.02800
H1400       H  0.62499837  0.33910340  0.96025380     0.09400
H1401       H  0.53016201  0.43229964  0.91945323     0.07400
Br1402     Br  0.56899757  0.46573946  0.98565780    -0.03200
C1403       C  0.63193059  0.25108883  0.99481602    -0.09900
C1404       C  0.63306947  0.25727511  0.03368695     0.06300
C1405       C  0.64126759  0.22735599  0.05756006    -0.03600
C1406       C  0.65750727  0.19540788  0.04229782    -0.08100
C1407       C  0.66743164  0.19490281  0.00435097     0.05500
C1408       C  0.64841574  0.21923545  0.97977902    -0.03100
Br1409     Br  0.65286594  0.21597169  0.92631034    -0.02800
H1410       H  0.62331658  0.27311013  0.97614177     0.09400
H1411       H  0.66975997  0.17512013  0.06121544     0.07400
Br1412     Br  0.63998495  0.23159796  0.11106758    -0.03200
C1413       C  0.51620781  0.14310813  0.26968979    -0.09900
C1414       C  0.55370480  0.13749291  0.28261416     0.06300
C1415       C  0.56167646  0.10435578  0.30239053    -0.03600
C1416       C  0.53381650  0.07631323  0.30457893    -0.08100
C1417       C  0.49786849  0.08050565  0.28727449     0.05500
C1418       C  0.48867209  0.11534568  0.27181519    -0.03100
Br1419     Br  0.43933746  0.12595104  0.25074108    -0.02800
H1420       H  0.50874811  0.16853467  0.25537438     0.09400
H1421       H  0.54149152  0.04995998  0.31690103     0.07400
Br1422     Br  0.61103790  0.09371836  0.32298439    -0.03200
C1423       C  0.56719900  0.34462877  0.17038698    -0.09900
C1424       C  0.60023485  0.36601935  0.16799051     0.06300
C1425       C  0.62830494  0.36213473  0.19640813    -0.03600
C1426       C  0.62754679  0.33134238  0.21997025    -0.08100
C1427       C  0.59866268  0.30496703  0.21573509     0.05500
C1428       C  0.56663723  0.31359850  0.19343088    -0.03100
Br1429     Br  0.52415750  0.28075902  0.18907570    -0.02800
H1430       H  0.54448102  0.34814787  0.14989984     0.09400
H1431       H  0.65192173  0.32567682  0.23794678     0.07400
Br1432     Br  0.67109146  0.39436440  0.20049164    -0.03200
C1433       C  0.74355831  0.56517976  0.15559127    -0.09900
C1434       C  0.78024587  0.56335377  0.17166802     0.06300
C1435       C  0.80421187  0.53350117  0.16113550    -0.03600
C1436       C  0.79058130  0.50565373  0.13728665    -0.08100
C1437       C  0.75492062  0.50847087  0.11961134     0.05500
C1438       C  0.73125462  0.53869082  0.12892461    -0.03100
Br1439     Br  0.68285455  0.54589332  0.10479589    -0.02800
H1440       H  0.72507466  0.58823993  0.16232717     0.09400
H1441       H  0.80995928  0.48367237  0.12923830     0.07400
Br1442     Br  0.85760410  0.53067958  0.17318788    -0.03200
C1443       C  0.87425262  0.53128171  0.36232225    -0.09900
C1444       C  0.91351474  0.53674867  0.36051596     0.06300
C1445       C  0.92640126  0.57355277  0.35914434    -0.03600
C1446       C  0.90209515  0.60049118  0.34425885    -0.08100
C1447       C  0.86543765  0.59054912  0.33205165     0.05500
C1448       C  0.85025012  0.55663068  0.34405248    -0.03100
Br1449     Br  0.80184191  0.53883888  0.32685350    -0.02800
H1450       H  0.86377718  0.50344930  0.36645998     0.09400
H1451       H  0.91376734  0.62702590  0.33652184     0.07400
Br1452     Br  0.97970778  0.58391235  0.35896006    -0.03200
C1453       C  0.04562619  0.90166003  0.14636929    -0.09900
C1454       C  0.05082845  0.87071477  0.16975885     0.06300
C1455       C  0.07944127  0.84476018  0.15988915    -0.03600
C1456       C  0.10432169  0.85217450  0.13090326    -0.08100
C1457       C  0.09901907  0.88255212  0.10708541     0.05500
C1458       C  0.06875027  0.90726699  0.11485863    -0.03100
Br1459     Br  0.05663746  0.94817767  0.08290534    -0.02800
H1460       H  0.02247097  0.92072389  0.15153781     0.09400
H1461       H  0.12561035  0.83140906  0.12445886     0.07400
Br1462     Br  0.08202529  0.79481272  0.17842042    -0.03200
C1463       C  0.09385187  0.81671622  0.33352401    -0.09900
C1464       C  0.05722642  0.80161441  0.33442468     0.06300
C1465       C  0.05213823  0.76743308  0.35261779    -0.03600
C1466       C  0.08385397  0.74635684  0.36322738    -0.08100
C1467       C  0.12014274  0.75760642  0.35289281     0.05500
C1468       C  0.12533341  0.79513355  0.34404246    -0.03100
Br1469     Br  0.17508008  0.81381242  0.33493867    -0.02800
H1470       H  0.09851472  0.84312676  0.32022766     0.09400
H1471       H  0.07955304  0.71797325  0.37180033     0.07400
Br1472     Br  0.00314997  0.74536820  0.35834296    -0.03200
C1473       C  0.92413055  0.70050592  0.17094312    -0.09900
C1474       C  0.88488250  0.70631623  0.16761091     0.06300
C1475       C  0.87158302  0.74248974  0.16037645    -0.03600
C1476       C  0.89527793  0.77249376  0.16875910    -0.08100
C1477       C  0.93213990  0.76605686  0.18265959     0.05500
C1478       C  0.94787148  0.73019795  0.17948031    -0.03100
Br1479     Br  0.99987849  0.71919354  0.19202844    -0.02800
H1480       H  0.93539877  0.67265014  0.17373744     0.09400
H1481       H  0.88346495  0.80027173  0.16864733     0.07400
Br1482     Br  0.82028009  0.75247141  0.14482886    -0.03200
C1483       C  0.83273144  0.56318364  0.54116486    -0.09900
C1484       C  0.82711659  0.59959569  0.55443165     0.06300
C1485       C  0.82323369  0.60564595  0.59322285    -0.03600
C1486       C  0.82005899  0.57556957  0.61734842    -0.08100
C1487       C  0.82088757  0.53907567  0.60352567     0.05500
C1488       C  0.82983773  0.53288903  0.56556179    -0.03100
Br1489     Br  0.83276191  0.48366915  0.54496937    -0.02800
H1490       H  0.83571398  0.55806217  0.51136571     0.09400
H1491       H  0.81327238  0.58076624  0.64647966     0.07400
Br1492     Br  0.81848180  0.65463662  0.61399762    -0.03200
C1493       C  0.69884706  0.61454304  0.34813949    -0.09900
C1494       C  0.70453351  0.57599988  0.34649917     0.06300
C1495       C  0.71632866  0.55715176  0.37921813    -0.03600
C1496       C  0.72639718  0.57762718  0.41128743    -0.08100
C1497       C  0.72324190  0.61633560  0.41179245     0.05500
C1498       C  0.70773649  0.63471670  0.38053662    -0.03100
Br1499     Br  0.70232696  0.68765535  0.37893687    -0.02800
H1500       H  0.68857984  0.62934909  0.32367538     0.09400
H1501       H  0.73867893  0.56347003  0.43527586     0.07400
Br1502     Br  0.72245401  0.50426816  0.38143466    -0.03200
C1503       C  0.53003113  0.86942590  0.62106974    -0.09900
C1504       C  0.49239698  0.87312927  0.60823681     0.06300
C1505       C  0.48597166  0.88670856  0.57164049    -0.03600
C1506       C  0.51653453  0.89115425  0.54712975    -0.08100
C1507       C  0.55371214  0.88244317  0.55874682     0.05500
C1508       C  0.56047134  0.87413800  0.59682388    -0.03100
Br1509     Br  0.61076628  0.86493543  0.61596796    -0.02800
H1510       H  0.53570967  0.85941873  0.64917293     0.09400
H1511       H  0.51073233  0.89757424  0.51796550     0.07400
Br1512     Br  0.43603812  0.89466223  0.55200842    -0.03200
C1513       C  0.57718000  0.75122083  0.39845066    -0.09900
C1514       C  0.55642751  0.77429319  0.42244192     0.06300
C1515       C  0.51777236  0.78115551  0.41476485    -0.03600
C1516       C  0.50114775  0.76701053  0.38180277    -0.08100
C1517       C  0.52307417  0.74707809  0.35596534     0.05500
C1518       C  0.56099169  0.73800288  0.36508793    -0.03100
Br1519     Br  0.59235220  0.70849536  0.33273511    -0.02800
H1520       H  0.60705853  0.74608413  0.40398861     0.09400
H1521       H  0.47173651  0.77344264  0.37531512     0.07400
Br1522     Br  0.48731554  0.81088788  0.44769760    -0.03200
C1523       C  0.72684599  0.80654630  0.56792612    -0.09900
C1524       C  0.72626639  0.83048392  0.53709419     0.06300
C1525       C  0.75839106  0.83201801  0.51414403    -0.03600
C1526       C  0.78550561  0.80370782  0.51652250    -0.08100
C1527       C  0.78002313  0.77410316  0.54102641     0.05500
C1528       C  0.75377025  0.77813770  0.56996246    -0.03100
Br1529     Br  0.74858814  0.74064416  0.60726046    -0.02800
H1530       H  0.70287805  0.80587411  0.58656721     0.09400
H1531       H  0.80647045  0.80141525  0.49469158     0.07400
Br1532     Br  0.76169022  0.86584909  0.47306330    -0.03200
C1533       C  0.52484541  0.73406563  0.12729158    -0.09900
C1534       C  0.52778883  0.76577930  0.15042503     0.06300
C1535       C  0.49890475  0.79304731  0.14798248    -0.03600
C1536       C  0.46856231  0.78845840  0.12282891    -0.08100
C1537       C  0.46749129  0.75864537  0.09734310     0.05500
C1538       C  0.49498471  0.73038562  0.10085517    -0.03100
Br1539     Br  0.49315002  0.68695900  0.06957747    -0.02800
H1540       H  0.54679417  0.71298765  0.12845545     0.09400
H1541       H  0.44837444  0.81105986  0.11985168     0.07400
Br1542     Br  0.50301536  0.84124911  0.17112773    -0.03200
C1543       C  0.60675635  0.93951436  0.21002276    -0.09900
C1544       C  0.60114893  0.91673578  0.17837068     0.06300
C1545       C  0.57201560  0.92576147  0.15248395    -0.03600
C1546       C  0.54326384  0.94991807  0.16354787    -0.08100
C1547       C  0.54401659  0.96518651  0.19979878     0.05500
C1548       C  0.57788131  0.96345152  0.22132506    -0.03100
Br1549     Br  0.58436573  0.98923234  0.26832462    -0.02800
H1550       H  0.63036436  0.93447988  0.22917393     0.09400
H1551       H  0.51821489  0.95272811  0.14577005     0.07400
Br1552     Br  0.56661146  0.90116089  0.10472942    -0.03200
C1553       C  0.85064421  0.06367717  0.09318904    -0.09900
C1554       C  0.83181452  0.06822494  0.12756169     0.06300
C1555       C  0.81692367  0.10379630  0.13603076    -0.03600
C1556       C  0.81697922  0.13185678  0.10899931    -0.08100
C1557       C  0.83176802  0.12596423  0.07299519     0.05500
C1558       C  0.85118677  0.09215530  0.06626828    -0.03100
Br1559     Br  0.87595094  0.08168755  0.01979303    -0.02800
H1560       H  0.86294514  0.03699808  0.08613031     0.09400
H1561       H  0.80249025  0.15766789  0.11529283     0.07400
Br1562     Br  0.79036345  0.11478090  0.18139740    -0.03200
C1563       C  0.65311440  0.04149720  0.17001007    -0.09900
C1564       C  0.68524338  0.04127868  0.14735280     0.06300
C1565       C  0.69314013  0.07290961  0.12580836    -0.03600
C1566       C  0.67486442  0.10641972  0.13421589    -0.08100
C1567       C  0.64758333  0.10771862  0.16225328     0.05500
C1568       C  0.63366437  0.07452855  0.17678112    -0.03100
Br1569     Br  0.59113485  0.07433536  0.20957776    -0.02800
H1570       H  0.64566858  0.01700115  0.18557999     0.09400
H1571       H  0.68494543  0.13186863  0.12201623     0.07400
Br1572     Br  0.73241532  0.07357229  0.08925322    -0.03200
C1573       C  0.75998745  0.85639797  0.11843095    -0.09900
C1574       C  0.77893907  0.86945299  0.15078594     0.06300
C1575       C  0.78086128  0.84635417  0.18250310    -0.03600
C1576       C  0.75679231  0.81565746  0.18434660    -0.08100
C1577       C  0.73092670  0.80817719  0.15492828     0.05500
C1578       C  0.73669152  0.82520975  0.12010887    -0.03100
Br1579     Br  0.70738701  0.81156139  0.07639398    -0.02800
H1580       H  0.75941664  0.87300615  0.09327660     0.09400
H1581       H  0.75387638  0.80190545  0.21103321     0.07400
Br1582     Br  0.80868645  0.85986927  0.22713749    -0.03200
C1583       C  0.68131315  0.07492541  0.55809720    -0.09900
C1584       C  0.68326599  0.08848193  0.52133719     0.06300
C1585       C  0.68025819  0.12724070  0.51618964    -0.03600
C1586       C  0.67917752  0.15145496  0.54727131    -0.08100
C1587       C  0.68270283  0.13808383  0.58399066     0.05500
C1588       C  0.68172915  0.09929347  0.58923515    -0.03100
Br1589     Br  0.68423587  0.07824318  0.63840249    -0.02800
H1590       H  0.68369669  0.04538686  0.56288230     0.09400
H1591       H  0.68014381  0.18105701  0.54248752     0.07400
Br1592     Br  0.68181503  0.14909709  0.46737205    -0.03200
C1593       C  0.86241511  0.08234688  0.34069529    -0.09900
C1594       C  0.84653517  0.11152498  0.32027048     0.06300
C1595       C  0.81112725  0.12646632  0.33021097    -0.03600
C1596       C  0.79146654  0.11104013  0.35978045    -0.08100
C1597       C  0.80688410  0.08105050  0.37960297     0.05500
C1598       C  0.84266747  0.06657356  0.36989390    -0.03100
Br1599     Br  0.86421616  0.02275353  0.39209339    -0.02800
H1600       H  0.88964011  0.07079234  0.33286857     0.09400
H1601       H  0.76395660  0.12225051  0.36711040     0.07400
Br1602     Br  0.78931338  0.16876920  0.30570018    -0.03200
C1603       C  0.03499104  0.79108345  0.62383612    -0.09900
C1604       C  0.07057224  0.78350404  0.60825607     0.06300
C1605       C  0.07287632  0.77813032  0.56913312    -0.03600
C1606       C  0.04215070  0.78793979  0.54589991    -0.08100
C1607       C  0.00862195  0.80160102  0.56153254     0.05500
C1608       C  0.00399240  0.80012326  0.60055317    -0.03100
Br1609     Br  0.95675685  0.81389332  0.62281398    -0.02800
H1610       H  0.03240568  0.79471431  0.65388956     0.09400
H1611       H  0.04571224  0.78815269  0.51577295     0.07400
Br1612     Br  0.11906251  0.76187136  0.54633990    -0.03200
C1613       C  0.99543709  0.92812196  0.38915544    -0.09900
C1614       C  0.01553193  0.90737575  0.41597480     0.06300
C1615       C  0.05203776  0.89417480  0.40782271    -0.03600
C1616       C  0.06784641  0.90168972  0.37297847    -0.08100
C1617       C  0.04701061  0.92087484  0.34529868     0.05500
C1618       C  0.01060162  0.93465517  0.35389563    -0.03100
Br1619     Br  0.98075117  0.96405551  0.31967979    -0.02800
H1620       H  0.96707080  0.93803019  0.39511416     0.09400
H1621       H  0.09633417  0.89204610  0.36735432     0.07400
Br1622     Br  0.08143268  0.86663082  0.44379342    -0.03200
C1623       C  0.87534882  0.96950021  0.55644389    -0.09900
C1624       C  0.86983930  0.93121156  0.55930383     0.06300
C1625       C  0.83239042  0.91811031  0.56117524    -0.03600
C1626       C  0.80270766  0.94020515  0.54731821    -0.08100
C1627       C  0.81025761  0.97609822  0.53453138     0.05500
C1628       C  0.84570087  0.99220021  0.54394623    -0.03100
Br1629     Br  0.85698221  0.04364051  0.53655600    -0.02800
H1630       H  0.90371481  0.98089062  0.55812572     0.09400
H1631       H  0.77479126  0.92819877  0.54353542     0.07400
Br1632     Br  0.82154460  0.86950912  0.57914921    -0.03200
loop_ 
_geom_bond_atom_site_label_1 
_geom_bond_atom_site_label_2 
_geom_bond_distance 
_geom_bond_site_symmetry_2 
_ccdc_geom_bond_type 
In1           O3   2.228       .  S
In1           O4   2.227       .  S
In1          O12   2.214       .  S
In1           O6   2.257       .  S
In1           O8   2.251       .  S
In1           O9   2.241       .  S
In1          O10   2.217       .  S
In1          O13   2.228       .  S
C2            O8   1.270       .  A
C2           O10   1.257       .  A
C2           C65   1.497       .  S
O3           C11   1.264       .  A
O4           C11   1.265       .  A
C5           O12   1.263       .  A
C5            O6   1.265       .  A
C5         C1607   1.468   1_655  S
C7            O9   1.264       .  A
C7           O13   1.260       .  A
C7         C1614   1.466   1_655  S
C11        C1624   1.477       .  S
In14         O16   2.209       .  S
In14         O17   2.198       .  S
In14         O25   2.229       .  S
In14         O19   2.307       .  S
In14         O21   2.296   1_545  S
In14         O22   2.201       .  S
In14         O23   2.276   1_545  S
In14         O26   2.251   1_545  S
C15          O21   1.265       .  A
C15          O23   1.258       .  A
C15          C60   1.499       .  S
O16          C24   1.264       .  A
O17          C24   1.263       .  A
C18          O25   1.254       .  A
C18          O19   1.270       .  A
C18        C1584   1.494       .  S
C20          O22   1.262   1_565  A
C20          O26   1.269       .  A
C20        C1627   1.478       .  S
C24        C1597   1.456       .  S
In27         O29   2.219   1_565  S
In27         O30   2.262   1_565  S
In27         O38   2.278   1_565  S
In27         O32   2.267   1_565  S
In27         O34   2.290       .  S
In27         O35   2.230       .  S
In27         O36   2.261       .  S
In27         O39   2.267       .  S
C28          O34   1.270       .  A
C28          O36   1.262       .  A
C28          C53   1.531       .  S
O29          C37   1.261       .  A
O30          C37   1.260       .  A
C31          O38   1.261       .  A
C31          O32   1.262       .  A
C31        C1554   1.504       .  S
C33          O35   1.260       .  A
C33          O39   1.261       .  A
C33        C1574   1.476       .  S
C37        C1564   1.469       .  S
In40         O42   2.272       .  S
In40         O43   2.219       .  S
In40         O51   2.271       .  S
In40         O45   2.240       .  S
In40         O47   2.253       .  S
In40         O48   2.251       .  S
In40         O49   2.259       .  S
In40         O52   2.217       .  S
C41          O47   1.268       .  A
C41          O49   1.260       .  A
C41          C77   1.520       .  S
O42          C50   1.263       .  A
O43          C50   1.256       .  A
C44          O51   1.262       .  A
C44          O45   1.259       .  A
C44        C1534   1.485       .  S
C46          O48   1.260       .  A
C46          O52   1.256       .  A
C46        C1544   1.466       .  S
C50        C1577   1.476       .  S
C53          C54   1.534       .  S
C53          C59   1.546       .  S
C53          C57   1.533       .  S
C54          H61   1.086       .  S
C54          C55   1.364       .  D
C55          C56   1.542       .  S
C55          C70   1.477       .  S
C56          C60   1.548       .  S
C56          C58   1.544       .  S
C56          H62   1.108       .  S
C57          H63   1.083       .  S
C57          C58   1.375       .  D
C58          C82   1.502       .  S
C59          H64   1.086       .  S
C59          C60   1.378       .  D
C65          C66   1.537       .  S
C65          C71   1.529       .  S
C65          C69   1.536       .  S
C66          H73   1.087       .  S
C66          C67   1.360       .  D
C67         C116   1.485       .  S
C67          C68   1.547       .  S
C68          C72   1.547       .  S
C68          C70   1.548       .  S
C68          H74   1.108       .  S
C69          H75   1.086       .  S
C69          C70   1.367       .  D
C71          H76   1.087       .  S
C71          C72   1.361       .  D
C72         C146   1.481       .  S
C77          C78   1.533       .  S
C77          C83   1.522       .  S
C77          C81   1.532       .  S
C78          H85   1.086       .  S
C78          C79   1.378       .  D
C79          C90   1.487       .  S
C79          C80   1.562       .  S
C80          C84   1.557       .  S
C80          C82   1.546       .  S
C80          H86   1.107       .  S
C81          H87   1.083       .  S
C81          C82   1.365       .  D
C83          H88   1.083       .  S
C83          C84   1.367       .  D
C84         C143   1.510       .  S
In89         O91   2.242       .  S
In89         O92   2.180       .  S
In89        O100   2.198       .  S
In89         O94   2.285       .  S
In89         O96   2.281       .  S
In89         O97   2.222       .  S
In89         O98   2.237       .  S
In89        O101   2.197       .  S
C90          O96   1.276       .  A
C90          O98   1.260       .  A
O91          C99   1.270       .  A
O92          C99   1.266       .  A
C93         O100   1.262       .  A
C93          O94   1.275       .  A
C93        C1507   1.483       .  S
C95          O97   1.267       .  A
C95         O101   1.263       .  A
C95        C1514   1.459       .  S
C99        C1524   1.466       .  S
In102       O104   2.191       .  S
In102       O105   2.246       .  S
In102       O113   2.211       .  S
In102       O107   2.275       .  S
In102       O109   2.240       .  S
In102       O110   2.188       .  S
In102       O111   2.237       .  S
In102       O114   2.228       .  S
C103        O109   1.274       .  A
C103        O111   1.261       .  A
C103        C148   1.475       .  S
O104        C112   1.261       .  A
O105        C112   1.268       .  A
C106        O113   1.263       .  A
C106        O107   1.271       .  A
C106       C1484   1.479       .  S
C108        O110   1.269       .  A
C108        O114   1.268       .  A
C108       C1527   1.462       .  S
C112       C1497   1.458       .  S
In115       O117   2.240       .  S
In115       O118   2.181       .  S
In115       O126   2.318       .  S
In115       O120   2.197   1_655  S
In115       O122   2.281       .  S
In115       O123   2.216   1_655  S
In115       O124   2.248       .  S
In115       O127   2.257   1_655  S
C116        O122   1.271       .  A
C116        O124   1.255       .  A
O117        C125   1.267       .  A
O118        C125   1.263       .  A
C119        O126   1.274   1_455  A
C119        O120   1.255       .  A
C119       C1454   1.503       .  S
C121        O123   1.261       .  A
C121        O127   1.265       .  A
C121       C1464   1.478       .  S
C125       C1477   1.466       .  S
In128       O130   2.246       .  S
In128       O131   2.201       .  S
In128       O139   2.187       .  S
In128       O133   2.280       .  S
In128       O135   2.231       .  S
In128       O136   2.198       .  S
In128       O137   2.222       .  S
In128       O140   2.227       .  S
C129        O135   1.273       .  A
C129        O137   1.258       .  A
C129        C141   1.498       .  S
O130        C138   1.264       .  A
O131        C138   1.264       .  A
C132        O139   1.256       .  A
C132        O133   1.270       .  A
C132       C1434   1.488       .  S
C134        O136   1.265       .  A
C134        O140   1.264       .  A
C134       C1474   1.472       .  S
C138       C1447   1.470       .  S
C141        C142   1.517       .  S
C141        C147   1.524       .  S
C141        C145   1.539       .  S
C142        H149   1.082       .  S
C142        C143   1.373       .  D
C143        C144   1.553       .  S
C144        C148   1.551       .  S
C144        C146   1.553       .  S
C144        H150   1.110       .  S
C145        H151   1.086       .  S
C145        C146   1.370       .  D
C147        H152   1.088       .  S
C147        C148   1.356       .  D
In153       O155   2.194       .  S
In153       O156   2.246       .  S
In153       O164   2.222       .  S
In153       O158   2.313       .  S
In153       O160   2.281       .  S
In153       O161   2.193       .  S
In153       O162   2.254       .  S
In153       O165   2.244       .  S
C154        O160   1.276       .  A
C154        O162   1.261       .  A
C154        C186   1.492       .  S
O155        C163   1.263       .  A
O156        C163   1.264       .  A
C157        O164   1.262       .  A
C157        O158   1.275       .  A
C157       C1414   1.507       .  S
C159        O161   1.266       .  A
C159        O165   1.269       .  A
C159       C1427   1.470       .  S
C163       C1567   1.460       .  S
In166       O168   2.241       .  S
In166       O169   2.191       .  S
In166       O177   2.273       .  S
In166       O171   2.244       .  S
In166       O173   2.250       .  S
In166       O174   2.220       .  S
In166       O175   2.283       .  S
In166       O178   2.252       .  S
C167        O173   1.256       .  A
C167        O175   1.268       .  A
C167        C257   1.481       .  S
O168        C176   1.266       .  A
O169        C176   1.261       .  A
C170        O177   1.262       .  A
C170        O171   1.262       .  A
C170       C1394   1.486   1_554  S
C172        O174   1.257       .  A
C172        O178   1.256       .  A
C172       C1404   1.464       .  S
C176       C1424   1.475       .  S
C179        C205   1.518       .  S
C179        C180   1.513       .  S
C179        C185   1.534       .  S
C179        C183   1.542       .  S
C180        H187   1.081       .  S
C180        C181   1.376       .  D
C181        C182   1.568       .  S
C181        C262   1.528       .  S
C182        C186   1.559       .  S
C182        C184   1.543       .  S
C182        H188   1.111       .  S
C183        H189   1.086       .  S
C183        C184   1.364       .  D
C184        C224   1.476       .  S
C185        H190   1.083       .  S
C185        C186   1.366       .  D
In191       O193   2.225       .  S
In191       O194   2.251       .  S
In191       O202   2.293       .  S
In191       O196   2.230       .  S
In191       O198   2.278       .  S
In191       O199   2.249       .  S
In191       O200   2.251       .  S
In191       O203   2.225       .  S
C192        O198   1.267       .  A
C192        O200   1.256       .  A
C192        C219   1.480       .  S
O193        C201   1.261       .  A
O194        C201   1.266       .  A
C195        O202   1.263       .  A
C195        O196   1.255       .  A
C195       C1364   1.486       .  S
C197        O199   1.268       .  A
C197        O203   1.264       .  A
C197       C1377   1.482       .  S
C201       C1384   1.480       .  S
In204       O206   2.226       .  S
In204       O207   2.212       .  S
In204       O215   2.234       .  S
In204       O209   2.291       .  S
In204       O211   2.290       .  S
In204       O212   2.185       .  S
In204       O213   2.228       .  S
In204       O216   2.267       .  S
C205        O211   1.271       .  A
C205        O213   1.256       .  A
O206        C214   1.261       .  A
O207        C214   1.259       .  A
C208        O215   1.256       .  A
C208        O209   1.266       .  A
C208       C1354   1.497       .  S
C210        O212   1.258       .  A
C210        O216   1.268       .  A
C210       C1387   1.477       .  S
C214       C1594   1.452       .  S
C217        C243   1.512       .  S
C217        C218   1.537       .  S
C217        C223   1.538       .  S
C217        C221   1.547       .  S
C218        H225   1.087       .  S
C218        C219   1.358       .  D
C219        C220   1.537       .  S
C220        C224   1.534       .  S
C220        C222   1.538       .  S
C220        H226   1.111       .  S
C221        H227   1.086       .  S
C221        C222   1.372       .  D
C222        C295   1.474       .  S
C223        H228   1.086       .  S
C223        C224   1.367       .  D
In229       O231   2.215       .  S
In229       O232   2.248       .  S
In229       O240   2.274       .  S
In229       O234   2.248       .  S
In229       O236   2.299       .  S
In229       O237   2.238       .  S
In229       O238   2.271       .  S
In229       O241   2.251       .  S
C230        O236   1.256       .  A
C230        O238   1.257       .  A
C230        C300   1.495       .  S
O231        C239   1.260       .  A
O232        C239   1.262       .  A
C233        O240   1.262       .  A
C233        O234   1.254       .  A
C233       C1334   1.492       .  S
C235        O237   1.256       .  A
C235        O241   1.264       .  A
C235       C1344   1.473       .  S
C239       C1494   1.471       .  S
In242       O244   2.240       .  S
In242       O245   2.201       .  S
In242       O253   2.235       .  S
In242       O247   2.262       .  S
In242       O249   2.284       .  S
In242       O250   2.243       .  S
In242       O251   2.241       .  S
In242       O254   2.243       .  S
C243        O249   1.267       .  A
C243        O251   1.256       .  A
O244        C252   1.266       .  A
O245        C252   1.261       .  A
C246        O253   1.256       .  A
C246        O247   1.261       .  A
C246       C1314   1.480       .  S
C248        O250   1.260       .  A
C248        O254   1.261       .  A
C248       C1324   1.476       .  S
C252       C1347   1.472       .  S
C255        C281   1.525       .  S
C255        C256   1.522       .  S
C255        C261   1.525       .  S
C255        C259   1.530       .  S
C256        H263   1.081       .  S
C256        C257   1.370       .  D
C257        C258   1.570       .  S
C258        C262   1.563       .  S
C258        C260   1.561       .  S
C258        H264   1.108       .  S
C259        H265   1.083       .  S
C259        C260   1.373       .  D
C260        C298   1.518       .  S
C261        H266   1.080       .  S
C261        C262   1.372       .  D
In267       O269   2.254       .  S
In267       O270   2.137       .  S
In267       O278   2.235       .  S
In267       O272   2.226   1_655  S
In267       O274   2.206       .  S
In267       O275   2.190       .  S
In267       O276   2.267       .  S
In267       O279   2.248       .  S
C268        O274   1.265       .  A
C268        O276   1.271       .  A
C268        C293   1.515       .  S
O269        C277   1.274       .  A
O270        C277   1.266       .  A
C271        O278   1.272   1_455  A
C271        O272   1.267       .  A
C271       C1294   1.492       .  S
C273        O275   1.263       .  A
C273        O279   1.271       .  A
C273       C1307   1.468       .  S
C277       C1444   1.459       .  S
In280       O282   2.253       .  S
In280       O283   2.218       .  S
In280       O291   2.260       .  S
In280       O285   2.272   1_554  S
In280       O287   2.261       .  S
In280       O288   2.238       .  S
In280       O289   2.281       .  S
In280       O292   2.241       .  S
C281        O287   1.266       .  A
C281        O289   1.258       .  A
O282        C290   1.266       .  A
O283        C290   1.262       .  A
C284        O291   1.258   1_556  A
C284        O285   1.258       .  A
C284       C1277   1.492       .  S
C286        O288   1.252       .  A
C286        O292   1.263       .  A
C286       C1284   1.467       .  S
C290       C1304   1.481       .  S
C293        C294   1.530       .  S
C293        C299   1.531       .  S
C293        C297   1.526       .  S
C294        H301   1.087       .  S
C294        C295   1.356       .  D
C295        C296   1.543       .  S
C296        C300   1.561       .  S
C296        C298   1.558       .  S
C296        H302   1.102       .  S
C297        H303   1.082       .  S
C297        C298   1.375       .  D
C299        H304   1.086       .  S
C299        C300   1.374       .  D
In305       O307   2.192       .  S
In305       O308   2.245       .  S
In305       O316   2.218       .  S
In305       O310   2.285       .  S
In305       O312   2.292       .  S
In305       O313   2.210       .  S
In305       O314   2.252       .  S
In305       O317   2.228       .  S
C306        O312   1.274       .  A
C306        O314   1.263       .  A
C306        C364   1.496       .  S
O307        C315   1.264       .  A
O308        C315   1.269       .  A
C309        O316   1.263       .  A
C309        O310   1.276       .  A
C309       C1244   1.498       .  S
C311        O313   1.267       .  A
C311        O317   1.267       .  A
C311       C1264   1.467       .  S
C315       C1254   1.467   1_655  S
In318       O320   2.256   1_554  S
In318       O321   2.189   1_554  S
In318       O329   2.246       .  S
In318       O323   2.237       .  S
In318       O325   2.271       .  S
In318       O326   2.248       .  S
In318       O327   2.254   1_554  S
In318       O330   2.210       .  S
C319        O325   1.269   1_556  A
C319        O327   1.259       .  A
C319        C369   1.520       .  S
O320        C328   1.267       .  A
O321        C328   1.261       .  A
C322        O329   1.258       .  A
C322        O323   1.262       .  A
C322       C1437   1.478       .  S
C324        O326   1.259       .  A
C324        O330   1.261       .  A
C324       C1287   1.466       .  S
C328       C1267   1.471       .  S
In331       O333   2.207   1_655  S
In331       O334   2.223       .  S
In331       O342   2.267       .  S
In331       O336   2.286   1_655  S
In331       O338   2.296       .  S
In331       O339   2.206       .  S
In331       O340   2.255       .  S
In331       O343   2.230       .  S
C332        O338   1.271       .  A
C332        O340   1.253       .  A
C332        C357   1.524       .  S
O333        C341   1.264   1_455  A
O334        C341   1.263       .  A
C335        O342   1.257   1_455  A
C335        O336   1.262       .  A
C335       C1217   1.499       .  S
C337        O339   1.262       .  A
C337        O343   1.264       .  A
C337       C1234   1.468       .  S
C341       C1224   1.465   1_655  S
In344       O346   2.214       .  S
In344       O347   2.193       .  S
In344       O355   2.237       .  S
In344       O349   2.296       .  S
In344       O351   2.305       .  S
In344       O352   2.229       .  S
In344       O353   2.230       .  S
In344       O356   2.245       .  S
C345        O351   1.276       .  A
C345        O353   1.260       .  A
C345        C381   1.526       .  S
O346        C354   1.267       .  A
O347        C354   1.267       .  A
C348        O355   1.257       .  A
C348        O349   1.271       .  A
C348       C1587   1.492       .  S
C350        O352   1.264       .  A
C350        O356   1.265       .  A
C350       C1374   1.471       .  S
C354       C1237   1.460       .  S
C357        C358   1.532       .  S
C357        C363   1.540       .  S
C357        C361   1.545       .  S
C358        H365   1.086       .  S
C358        C359   1.359       .  D
C359        C360   1.554       .  S
C359        C374   1.490       .  S
C360        C364   1.555       .  S
C360        C362   1.558       .  S
C360        H366   1.099       .  S
C361        H367   1.084       .  S
C361        C362   1.376       .  D
C362        C386   1.525       .  S
C363        H368   1.086       .  S
C363        C364   1.370       .  D
C369        C370   1.537       .  S
C369        C375   1.520       .  S
C369        C373   1.546       .  S
C370        H377   1.084   1_556  S
C370        C371   1.374       .  D
C371        C420   1.515       .  S
C371        C372   1.571       .  S
C372        C376   1.562       .  S
C372        C374   1.545       .  S
C372        H378   1.108       .  S
C373        H379   1.086       .  S
C373        C374   1.367       .  D
C375        H380   1.080       .  S
C375        C376   1.364       .  D
C376        C447   1.513       .  S
C381        C382   1.519       .  S
C381        C387   1.536       .  S
C381        C385   1.549       .  S
C382        H389   1.087       .  S
C382        C383   1.356       .  D
C383        C407   1.486       .  S
C383        C384   1.559       .  S
C384        C388   1.548       .  S
C384        C386   1.554       .  S
C384        H390   1.103       .  S
C385        H391   1.084       .  S
C385        C386   1.383       .  D
C387        H392   1.085       .  S
C387        C388   1.372       .  D
C388        C450   1.488       .  S
In393       O395   2.220       .  S
In393       O396   2.254       .  S
In393       O404   2.291       .  S
In393       O398   2.243       .  S
In393       O400   2.284       .  S
In393       O401   2.215       .  S
In393       O402   2.279       .  S
In393       O405   2.257       .  S
C394        O400   1.258       .  A
C394        O402   1.261       .  A
C394        C445   1.529       .  S
O395        C403   1.260       .  A
O396        C403   1.259       .  A
C397        O404   1.262       .  A
C397        O398   1.258       .  A
C397       C1184   1.498       .  S
C399        O401   1.255       .  A
C399        O405   1.264       .  A
C399       C1204   1.476       .  S
C403       C1194   1.472       .  S
In406       O408   2.234       .  S
In406       O409   2.219       .  S
In406       O417   2.204       .  S
In406       O411   2.296       .  S
In406       O413   2.300       .  S
In406       O414   2.249       .  S
In406       O415   2.235       .  S
In406       O418   2.237       .  S
C407        O413   1.268       .  A
C407        O415   1.259       .  A
O408        C416   1.264       .  A
O409        C416   1.264       .  A
C410        O417   1.255       .  A
C410        O411   1.269       .  A
C410       C1487   1.476       .  S
C412        O414   1.262       .  A
C412        O418   1.263       .  A
C412       C1327   1.484       .  S
C416       C1207   1.477       .  S
In419       O421   2.246       .  S
In419       O422   2.212       .  S
In419       O430   2.243   1_556  S
In419       O424   2.307   1_556  S
In419       O426   2.312       .  S
In419       O427   2.249       .  S
In419       O428   2.317       .  S
In419       O431   2.213   1_556  S
C420        O426   1.264       .  A
C420        O428   1.257       .  A
O421        C429   1.269       .  A
O422        C429   1.260       .  A
C423        O430   1.259       .  A
C423        O424   1.267       .  A
C423       C1557   1.505       .  S
C425        O427   1.257       .  A
C425        O431   1.259   1_556  A
C425       C1407   1.466   1_556  S
C429       C1174   1.478       .  S
In432       O434   2.269       .  S
In432       O435   2.164       .  S
In432       O443   2.252       .  S
In432       O437   2.200       .  S
In432       O439   2.241       .  S
In432       O440   2.180       .  S
In432       O441   2.281       .  S
In432       O444   2.260       .  S
C433        O439   1.261       .  A
C433        O441   1.266       .  A
C433        C452   1.486       .  S
O434        C442   1.269       .  A
O435        C442   1.259       .  A
C436        O443   1.272       .  A
C436        O437   1.266       .  A
C436       C1154   1.487       .  S
C438        O440   1.263       .  A
C438        O444   1.270       .  A
C438       C1177   1.468       .  S
C442       C1167   1.466       .  S
C445        C446   1.526       .  S
C445        C451   1.545       .  S
C445        C449   1.541       .  S
C446        H453   1.080       .  S
C446        C447   1.382       .  D
C447        C448   1.549       .  S
C448        C452   1.540       .  S
C448        C450   1.543       .  S
C448        H454   1.109       .  S
C449        H455   1.087       .  S
C449        C450   1.361       .  D
C451        H456   1.083       .  S
C451        C452   1.374       .  D
In457       O459   2.186       .  S
In457       O460   2.240       .  S
In457       O468   2.206       .  S
In457       O462   2.262       .  S
In457       O464   2.228       .  S
In457       O465   2.213       .  S
In457       O466   2.237       .  S
In457       O469   2.226       .  S
C458        O464   1.271       .  A
C458        O466   1.258       .  A
C458        C559   1.502       .  S
O459        C467   1.262       .  A
O460        C467   1.266       .  A
C461        O468   1.261       .  A
C461        O462   1.266       .  A
C461       C1367   1.468       .  S
C463        O465   1.265       .  A
C463        O469   1.264       .  A
C463       C1144   1.472       .  S
C467       C1227   1.474       .  S
In470       O472   2.219       .  S
In470       O473   2.211       .  S
In470       O481   2.285       .  S
In470       O475   2.204       .  S
In470       O477   2.268       .  S
In470       O478   2.216       .  S
In470       O479   2.249       .  S
In470       O482   2.204       .  S
C471        O477   1.272       .  A
C471        O479   1.258       .  A
C471        C485   1.482       .  S
O472        C480   1.265       .  A
O473        C480   1.267       .  A
C474        O481   1.270       .  A
C474        O475   1.258       .  A
C474       C1124   1.476       .  S
C476        O478   1.267       .  A
C476        O482   1.263       .  A
C476       C1137   1.451       .  S
C480       C1147   1.468       .  S
C483        C509   1.501       .  S
C483        C484   1.538       .  S
C483        C489   1.528       .  S
C483        C487   1.546       .  S
C484        H491   1.087       .  S
C484        C485   1.360       .  D
C485        C486   1.538       .  S
C486        C490   1.544       .  S
C486        C488   1.536       .  S
C486        H492   1.112       .  S
C487        H493   1.086       .  S
C487        C488   1.369       .  D
C488        C528   1.470       .  S
C489        H494   1.087       .  S
C489        C490   1.363       .  D
C490        C564   1.475       .  S
In495       O497   2.248       .  S
In495       O498   2.247       .  S
In495       O506   2.305       .  S
In495       O500   2.201       .  S
In495       O502   2.255       .  S
In495       O503   2.188       .  S
In495       O504   2.234       .  S
In495       O507   2.241       .  S
C496        O502   1.268       .  A
C496        O504   1.255       .  A
C496        C526   1.472       .  S
O497        C505   1.264       .  A
O498        C505   1.265       .  A
C499        O506   1.270       .  A
C499        O500   1.256       .  A
C499       C1397   1.499       .  S
C501        O503   1.265       .  A
C501        O507   1.266       .  A
C501       C1117   1.470       .  S
C505       C1164   1.484       .  S
In508       O510   2.236       .  S
In508       O511   2.203       .  S
In508       O519   2.198       .  S
In508       O513   2.286       .  S
In508       O515   2.251       .  S
In508       O516   2.198       .  S
In508       O517   2.218       .  S
In508       O520   2.244       .  S
C509        O515   1.272       .  A
C509        O517   1.257       .  A
O510        C518   1.267       .  A
O511        C518   1.265       .  A
C512        O519   1.258       .  A
C512        O513   1.271       .  A
C512       C1094   1.488       .  S
C514        O516   1.264       .  A
C514        O520   1.262       .  A
C514       C1107   1.466       .  S
C518       C1114   1.476       .  S
C521        C547   1.504       .  S
C521        C522   1.535       .  S
C521        C527   1.523       .  S
C521        C525   1.527       .  S
C522        H529   1.082       .  S
C522        C523   1.374       .  D
C523        C524   1.549       .  S
C523        C602   1.505       .  S
C524        C528   1.545       .  S
C524        C526   1.548       .  S
C524        H530   1.106       .  S
C525        H531   1.088       .  S
C525        C526   1.363       .  D
C527        H532   1.087       .  S
C527        C528   1.364       .  D
In533       O535   2.212       .  S
In533       O536   2.224       .  S
In533       O544   2.206       .  S
In533       O538   2.278       .  S
In533       O540   2.265       .  S
In533       O541   2.193       .  S
In533       O542   2.255       .  S
In533       O545   2.188       .  S
C534        O540   1.278       .  A
C534        O542   1.263       .  A
C534        C597   1.530       .  S
O535        C543   1.266       .  A
O536        C543   1.269       .  A
C537        O544   1.262       .  A
C537        O538   1.273       .  A
C537       C1064   1.478       .  S
C539        O541   1.271       .  A
C539        O545   1.267       .  A
C539       C1077   1.459       .  S
C543       C1084   1.478       .  S
In546       O548   2.229       .  S
In546       O549   2.223       .  S
In546       O557   2.201       .  S
In546       O551   2.274       .  S
In546       O553   2.278       .  S
In546       O554   2.213       .  S
In546       O555   2.210       .  S
In546       O558   2.229       .  S
C547        O553   1.268       .  A
C547        O555   1.253       .  A
O548        C556   1.262       .  A
O549        C556   1.261       .  A
C550        O557   1.258       .  A
C550        O551   1.266       .  A
C550       C1317   1.467       .  S
C552        O554   1.264       .  A
C552        O558   1.267       .  A
C552       C1087   1.478       .  S
C556       C1197   1.459       .  S
C559        C560   1.515       .  S
C559        C565   1.533       .  S
C559        C563   1.532       .  S
C560        H567   1.080       .  S
C560        C561   1.368       .  D
C561        C562   1.559       .  S
C561        C604   1.512       .  S
C562        C566   1.560       .  S
C562        C564   1.552       .  S
C562        H568   1.110       .  S
C563        H569   1.087       .  S
C563        C564   1.363       .  D
C565        H570   1.087       .  S
C565        C566   1.366       .  D
C566        C572   1.492       .  S
In571       O573   2.236       .  S
In571       O574   2.239       .  S
In571       O582   2.265       .  S
In571       O576   2.273       .  S
In571       O578   2.278       .  S
In571       O579   2.183       .  S
In571       O580   2.269       .  S
In571       O583   2.258       .  S
C572        O578   1.269       .  A
C572        O580   1.258       .  A
O573        C581   1.261       .  A
O574        C581   1.256       .  A
C575        O582   1.260       .  A
C575        O576   1.260       .  A
C575       C1274   1.497       .  S
C577        O579   1.261       .  A
C577        O583   1.268       .  A
C577       C1057   1.469       .  S
C581       C1257   1.465       .  S
In584       O586   2.273       .  S
In584       O587   2.208       .  S
In584       O595   2.313       .  S
In584       O589   2.273       .  S
In584       O591   2.301       .  S
In584       O592   2.256       .  S
In584       O593   2.269       .  S
In584       O596   2.221       .  S
C585        O591   1.267       .  A
C585        O593   1.256       .  A
C585        C599   1.496       .  S
O586        C594   1.269       .  A
O587        C594   1.262       .  A
C588        O595   1.263       .  A
C588        O589   1.260       .  A
C588       C1034   1.512       .  S
C590        O592   1.256       .  A
C590        O596   1.251       .  A
C590       C1044   1.472       .  S
C594       C1054   1.479       .  S
C597        C598   1.542       .  S
C597        C603   1.521       .  S
C597        C601   1.527       .  S
C598        H605   1.086       .  S
C598        C599   1.379       .  D
C599        C600   1.562       .  S
C600        C604   1.552       .  S
C600        C602   1.551       .  S
C600        H606   1.107       .  S
C601        H607   1.083       .  S
C601        C602   1.369       .  D
C603        H608   1.081       .  S
C603        C604   1.372       .  D
In609       O611   2.206       .  S
In609       O612   2.253       .  S
In609       O620   2.289       .  S
In609       O614   2.313       .  S
In609       O616   2.338       .  S
In609       O617   2.176       .  S
In609       O618   2.284       .  S
In609       O621   2.244       .  S
C610        O616   1.273       .  A
C610        O618   1.253       .  A
C610        C718   1.512       .  S
O611        C619   1.262       .  A
O612        C619   1.257       .  A
C613        O620   1.261       .  A
C613        O614   1.263       .  A
C613       C1037   1.520   1_554  S
C615        O617   1.263       .  A
C615        O621   1.269       .  A
C615       C1024   1.471       .  S
C619       C1014   1.456       .  S
In622       O624   2.241       .  S
In622       O625   2.182       .  S
In622       O633   2.240       .  S
In622       O627   2.242       .  S
In622       O629   2.240       .  S
In622       O630   2.155       .  S
In622       O631   2.252       .  S
In622       O634   2.271       .  S
C623        O629   1.260       .  A
C623        O631   1.269       .  A
C623        C637   1.477       .  S
O624        C632   1.271       .  A
O625        C632   1.265       .  A
C626        O633   1.268       .  A
C626        O627   1.269       .  A
C626       C1297   1.496       .  S
C628        O630   1.260       .  A
C628        O634   1.272       .  A
C628       C1467   1.462       .  S
C632       C1027   1.463       .  S
C635        C661   1.515       .  S
C635        C636   1.526       .  S
C635        C641   1.525       .  S
C635        C639   1.532       .  S
C636        H643   1.083       .  S
C636        C637   1.367       .  D
C637        C638   1.554       .  S
C638        C642   1.551       .  S
C638        C640   1.553       .  S
C638        H644   1.105       .  S
C639        H645   1.084       .  S
C639        C640   1.367       .  D
C640        C675   1.504       .  S
C641        H646   1.083       .  S
C641        C642   1.380       .  D
C642        C713   1.516       .  S
In647       O649   2.246       .  S
In647       O650   2.237       .  S
In647       O658   2.242   1_565  S
In647       O652   2.271       .  S
In647       O654   2.293       .  S
In647       O655   2.212       .  S
In647       O656   2.241       .  S
In647       O659   2.218   1_565  S
C648        O654   1.267       .  A
C648        O656   1.256       .  A
C648        C673   1.516       .  S
O649        C657   1.263       .  A
O650        C657   1.260       .  A
C651        O658   1.255       .  A
C651        O652   1.262   1_545  A
C651       C1127   1.483       .  S
C653        O655   1.264   1_545  A
C653        O659   1.264       .  A
C653       C1004   1.472       .  S
C657        C994   1.479       .  S
In660       O662   2.226       .  S
In660       O663   2.223       .  S
In660       O671   2.262       .  S
In660       O665   2.258       .  S
In660       O667   2.249       .  S
In660       O668   2.246       .  S
In660       O669   2.282       .  S
In660       O672   2.244       .  S
C661        O667   1.259       .  A
C661        O669   1.259       .  A
O662        C670   1.262   1_565  A
O663        C670   1.258   1_565  A
C664        O671   1.256       .  A
C664        O665   1.261       .  A
C664       C1357   1.493   1_565  S
C666        O668   1.259       .  A
C666        O672   1.262       .  A
C666       C1617   1.476       .  S
C670       C1007   1.464       .  S
C673        C674   1.539       .  S
C673        C679   1.533       .  S
C673        C677   1.529       .  S
C674        H681   1.083       .  S
C674        C675   1.381       .  D
C675        C676   1.543       .  S
C676        C680   1.543       .  S
C676        C678   1.540       .  S
C676        H682   1.107       .  S
C677        H683   1.087       .  S
C677        C678   1.361       .  D
C678        C699   1.473       .  S
C679        H684   1.086       .  S
C679        C680   1.366       .  D
C680        C754   1.473       .  S
In685       O687   2.249       .  S
In685       O688   2.225       .  S
In685       O696   2.268       .  S
In685       O690   2.248       .  S
In685       O692   2.258       .  S
In685       O693   2.251       .  S
In685       O694   2.289       .  S
In685       O697   2.227       .  S
C686        O692   1.254       .  A
C686        O694   1.259       .  A
C686        C749   1.516       .  S
O687        C695   1.264       .  A
O688        C695   1.261       .  A
C689        O696   1.260       .  A
C689        O690   1.255       .  A
C689       C1337   1.489       .  S
C691        O693   1.260       .  A
C691        O697   1.260       .  A
C691       C1517   1.465       .  S
C695        C984   1.475       .  S
In698       O700   2.231       .  S
In698       O701   2.221       .  S
In698       O709   2.264       .  S
In698       O703   2.256       .  S
In698       O705   2.287       .  S
In698       O706   2.194       .  S
In698       O707   2.224       .  S
In698       O710   2.255       .  S
C699        O705   1.268       .  A
C699        O707   1.253       .  A
O700        C708   1.263       .  A
O701        C708   1.262       .  A
C702        O709   1.260       .  A
C702        O703   1.256       .  A
C702       C1067   1.494       .  S
C704        O706   1.258       .  A
C704        O710   1.267       .  A
C704        C987   1.477       .  S
C708        C974   1.465       .  S
C711        C724   1.518       .  S
C711        C712   1.518       .  S
C711        C717   1.540       .  S
C711        C715   1.538       .  S
C712        H719   1.082       .  S
C712        C713   1.365       .  D
C713        C714   1.565       .  S
C714        C718   1.569       .  S
C714        C716   1.561       .  S
C714        H720   1.109       .  S
C715        H721   1.087       .  S
C715        C716   1.360       .  D
C716        C756   1.496       .  S
C717        H722   1.101       .  S
C717        C718   1.372       .  D
In723       O725   2.224       .  S
In723       O726   2.243   1_565  S
In723       O734   2.245   1_565  S
In723       O728   2.253       .  S
In723       O730   2.288       .  S
In723       O731   2.205   1_565  S
In723       O732   2.233       .  S
In723       O735   2.254       .  S
C724        O730   1.271       .  A
C724        O732   1.255       .  A
O725        C733   1.260       .  A
O726        C733   1.258   1_545  A
C727        O734   1.258       .  A
C727        O728   1.261   1_545  A
C727       C1097   1.483   1_554  S
C729        O731   1.261       .  A
C729        O735   1.267   1_545  A
C729        C964   1.476       .  S
C733        C954   1.465       .  S
In736       O738   2.241   1_565  S
In736       O739   2.180   1_565  S
In736       O747   2.202   1_565  S
In736       O741   2.297   1_565  S
In736       O743   2.291       .  S
In736       O744   2.216       .  S
In736       O745   2.253       .  S
In736       O748   2.197       .  S
C737        O743   1.278       .  A
C737        O745   1.264       .  A
C737        C751   1.499       .  S
O738        C746   1.272       .  A
O739        C746   1.268       .  A
C740        O747   1.264       .  A
C740        O741   1.280       .  A
C740       C1417   1.498       .  S
C742        O744   1.270       .  A
C742        O748   1.268       .  A
C742       C1547   1.466       .  S
C746        C967   1.466       .  S
C749        C750   1.546       .  S
C749        C755   1.540       .  S
C749        C753   1.541       .  S
C750        H757   1.085       .  S
C750        C751   1.367       .  D
C751        C752   1.550       .  S
C752        C756   1.550       .  S
C752        C754   1.536       .  S
C752        H758   1.104       .  S
C753        H759   1.087       .  S
C753        C754   1.363       .  D
C755        H760   1.085       .  S
C755        C756   1.366       .  D
In761       O763   2.251       .  S
In761       O764   2.198       .  S
In761       O772   2.241   1_565  S
In761       O766   2.189       .  S
In761       O768   2.144       .  S
In761       O769   2.164   1_565  S
In761       O770   2.302       .  S
In761       O773   2.247       .  S
C762        O768   1.263       .  A
C762        O770   1.276       .  A
C762        C825   1.521       .  S
O763        C771   1.269       .  A
O764        C771   1.266       .  A
C765        O772   1.275       .  A
C765        O766   1.266   1_545  A
C765       C1157   1.487       .  S
C767        O769   1.268       .  A
C767        O773   1.272   1_545  A
C767       C1104   1.459       .  S
C771        C944   1.472       .  S
In774       O776   2.252   1_554  S
In774       O777   2.246       .  S
In774       O785   2.270       .  S
In774       O779   2.247       .  S
In774       O781   2.289   1_554  S
In774       O782   2.216   1_554  S
In774       O783   2.247   1_554  S
In774       O786   2.255   1_554  S
C775        O781   1.266       .  A
C775        O783   1.257       .  A
C775        C813   1.519       .  S
O776        C784   1.254   1_556  A
O777        C784   1.261       .  A
C778        O785   1.258       .  A
C778        O779   1.257       .  A
C778       C1537   1.481       .  S
C780        O782   1.261       .  A
C780        O786   1.267       .  A
C780        C947   1.481       .  S
C784        C957   1.470       .  S
In787       O789   2.201       .  S
In787       O790   2.260       .  S
In787       O798   2.292       .  S
In787       O792   2.239       .  S
In787       O794   2.253   1_554  S
In787       O795   2.177   1_554  S
In787       O796   2.302   1_554  S
In787       O799   2.252   1_554  S
C788        O794   1.256       .  A
C788        O796   1.270       .  A
C788        C820   1.490       .  S
O789        C797   1.260       .  A
O790        C797   1.254       .  A
C791        O798   1.262       .  A
C791        O792   1.259       .  A
C791       C1457   1.499       .  S
C793        O795   1.259       .  A
C793        O799   1.270       .  A
C793        C934   1.468       .  S
C797       C1017   1.454       .  S
In800       O802   2.219       .  S
In800       O803   2.197       .  S
In800       O811   2.207       .  S
In800       O805   2.276       .  S
In800       O807   2.261       .  S
In800       O808   2.210       .  S
In800       O809   2.243       .  S
In800       O812   2.174       .  S
C801        O807   1.279       .  A
C801        O809   1.268       .  A
C801        C837   1.528       .  S
O802        C810   1.270       .  A
O803        C810   1.272       .  A
C804        O811   1.268       .  A
C804        O805   1.278       .  A
C804       C1247   1.497       .  S
C806        O808   1.274       .  A
C806        O812   1.272       .  A
C806       C1047   1.470       .  S
C810        C937   1.468       .  S
C813        C814   1.532       .  S
C813        C819   1.535       .  S
C813        C817   1.529       .  S
C814        H821   1.086       .  S
C814        C815   1.367       .  D
C815        C816   1.545       .  S
C815        C842   1.479       .  S
C816        C820   1.555       .  S
C816        C818   1.555       .  S
C816        H822   1.109       .  S
C817        H823   1.082       .  S
C817        C818   1.372       .  D
C818        C830   1.514       .  S
C819        H824   1.102   1_556  S
C819        C820   1.366       .  D
C825        C826   1.516       .  S
C825        C831   1.523       .  S
C825        C829   1.527       .  S
C826        H833   1.085       .  S
C826        C827   1.375       .  D
C827        C876   1.494       .  S
C827        C828   1.585       .  S
C828        C832   1.567       .  S
C828        C830   1.557       .  S
C828        H834   1.108       .  S
C829        H835   1.081       .  S
C829        C830   1.376       .  D
C831        H836   1.080       .  S
C831        C832   1.354       .  D
C832        C903   1.526       .  S
C837        C838   1.544       .  S
C837        C843   1.537       .  S
C837        C841   1.547       .  S
C838        H845   1.084       .  S
C838        C839   1.374       .  D
C839        C850   1.484       .  S
C839        C840   1.536       .  S
C840        C844   1.536       .  S
C840        C842   1.535       .  S
C840        H846   1.112       .  S
C841        H847   1.086       .  S
C841        C842   1.369       .  D
C843        H848   1.086       .  S
C843        C844   1.366       .  D
C844        C906   1.482       .  S
In849       O851   2.258       .  S
In849       O852   2.198       .  S
In849       O860   2.214       .  S
In849       O854   2.285       .  S
In849       O856   2.253       .  S
In849       O857   2.230       .  S
In849       O858   2.256       .  S
In849       O861   2.218       .  S
C850        O856   1.258       .  A
C850        O858   1.260       .  A
O851        C859   1.268       .  A
O852        C859   1.259       .  A
C853        O860   1.254       .  A
C853        O854   1.267       .  A
C853       C1187   1.495       .  S
C855        O857   1.259       .  A
C855        O861   1.261       .  A
C855       C1074   1.466       .  S
C859        C927   1.477       .  S
In862       O864   2.225       .  S
In862       O865   2.234       .  S
In862       O873   2.224       .  S
In862       O867   2.315       .  S
In862       O869   2.272       .  S
In862       O870   2.220       .  S
In862       O871   2.290       .  S
In862       O874   2.234       .  S
C863        O869   1.271       .  A
C863        O871   1.260       .  A
C863        C901   1.537       .  S
O864        C872   1.261       .  A
O865        C872   1.264       .  A
C866        O873   1.256       .  A
C866        O867   1.269       .  A
C866       C1504   1.488       .  S
C868        O870   1.264       .  A
C868        O874   1.264       .  A
C868        C924   1.476       .  S
C872        C977   1.480       .  S
In875       O877   2.245   1_545  S
In875       O878   2.206       .  S
In875       O886   2.291       .  S
In875       O880   2.242       .  S
In875       O882   2.298   1_545  S
In875       O883   2.227       .  S
In875       O884   2.274   1_545  S
In875       O887   2.227       .  S
C876        O882   1.255       .  A
C876        O884   1.264       .  A
O877        C885   1.267       .  A
O878        C885   1.261   1_545  A
C879        O886   1.265       .  A
C879        O880   1.257       .  A
C879       C1214   1.501       .  S
C881        O883   1.261       .  A
C881        O887   1.261       .  A
C881       C1134   1.465       .  S
C885        C914   1.475       .  S
In888       O890   2.220       .  S
In888       O891   2.241       .  S
In888       O899   2.282       .  S
In888       O893   2.209       .  S
In888       O895   2.262       .  S
In888       O896   2.211       .  S
In888       O897   2.248       .  S
In888       O900   2.233       .  S
C889        O895   1.255       .  A
C889        O897   1.262       .  A
C889        C908   1.471       .  S
O890        C898   1.261       .  A
O891        C898   1.266       .  A
C892        O899   1.264       .  A
C892        O893   1.254       .  A
C892       C1604   1.474       .  S
C894        O896   1.263       .  A
C894        O900   1.264       .  A
C894        C917   1.472       .  S
C898        C997   1.481       .  S
C901        C902   1.522       .  S
C901        C907   1.527       .  S
C901        C905   1.546       .  S
C902        H909   1.079       .  S
C902        C903   1.381       .  D
C903        C904   1.546       .  S
C904        C908   1.545       .  S
C904        C906   1.545       .  S
C904        H910   1.110       .  S
C905        H911   1.086       .  S
C905        C906   1.379       .  D
C907        H912   1.087       .  S
C907        C908   1.364       .  D
C913        C914   1.404       .  A
C913        C918   1.395       .  A
C913        H920   1.084   1_565  S
C914        C915   1.404       .  A
C915        C916   1.397       .  A
C915       Br922   1.910       .  S
C916        C917   1.405       .  A
C916        H921   1.084       .  S
C917        C918   1.411       .  A
C918       Br919   1.921       .  S
C923        C924   1.401       .  A
C923        C928   1.394       .  A
C923        H930   1.083       .  S
C924        C925   1.407       .  A
C925        C926   1.399       .  A
C925       Br932   1.914       .  S
C926        C927   1.405       .  A
C926        H931   1.083       .  S
C927        C928   1.415       .  A
C928       Br929   1.923       .  S
C933        C934   1.403       .  A
C933        C938   1.398       .  A
C933        H940   1.084       .  S
C934        C935   1.410       .  A
C935        C936   1.397       .  A
C935       Br942   1.918       .  S
C936        C937   1.400       .  A
C936        H941   1.084       .  S
C937        C938   1.411       .  A
C938       Br939   1.918       .  S
C943        C944   1.400       .  A
C943        C948   1.397       .  A
C943        H950   1.083       .  S
C944        C945   1.410       .  A
C945        C946   1.400       .  A
C945       Br952   1.914       .  S
C946        C947   1.405       .  A
C946        H951   1.083       .  S
C947        C948   1.413       .  A
C948       Br949   1.920       .  S
C953        C954   1.401       .  A
C953        C958   1.397       .  A
C953        H960   1.084   1_554  S
C954        C955   1.410       .  A
C955        C956   1.395       .  A
C955       Br962   1.918       .  S
C956        C957   1.400       .  A
C956        H961   1.084       .  S
C957        C958   1.411       .  A
C958       Br959   1.916   1_554  S
C963        C964   1.405   1_565  A
C963        C968   1.400       .  A
C963        H970   1.083       .  S
C964        C965   1.410       .  A
C965        C966   1.396       .  A
C965       Br972   1.917       .  S
C966        C967   1.400       .  A
C966        H971   1.083       .  S
C967        C968   1.407   1_545  A
C968       Br969   1.913       .  S
C973        C974   1.399       .  A
C973        C978   1.395       .  A
C973        H980   1.084       .  S
C974        C975   1.407       .  A
C975        C976   1.396       .  A
C975       Br982   1.922       .  S
C976        C977   1.406       .  A
C976        H981   1.082       .  S
C977        C978   1.415       .  A
C978       Br979   1.917       .  S
C983        C984   1.400       .  A
C983        C988   1.394       .  A
C983        H990   1.084       .  S
C984        C985   1.401       .  A
C985        C986   1.400       .  A
C985       Br992   1.910       .  S
C986        C987   1.407       .  A
C986        H991   1.081       .  S
C987        C988   1.417       .  A
C988       Br989   1.923       .  S
C993        C994   1.403       .  A
C993        C998   1.399       .  A
C993       H1000   1.082       .  S
C994        C995   1.412       .  A
C995        C996   1.398       .  A
C995      Br1002   1.921       .  S
C996        C997   1.404       .  A
C996       H1001   1.083       .  S
C997        C998   1.414       .  A
C998       Br999   1.924       .  S
C1003      C1004   1.402       .  A
C1003      C1008   1.392       .  A
C1003      H1010   1.084       .  S
C1004      C1005   1.408       .  A
C1005      C1006   1.394       .  A
C1005     Br1012   1.917       .  S
C1006      C1007   1.402       .  A
C1006      H1011   1.084       .  S
C1007      C1008   1.413       .  A
C1008     Br1009   1.925       .  S
C1013      C1014   1.401       .  A
C1013      C1018   1.393       .  A
C1013      H1020   1.084   1_554  S
C1014      C1015   1.408       .  A
C1015      C1016   1.394       .  A
C1015     Br1022   1.921       .  S
C1016      C1017   1.401       .  A
C1016      H1021   1.085       .  S
C1017      C1018   1.403       .  A
C1018     Br1019   1.918   1_554  S
C1023      C1024   1.405       .  A
C1023      C1028   1.394       .  A
C1023      H1030   1.084       .  S
C1024      C1025   1.412       .  A
C1025      C1026   1.398       .  A
C1025     Br1032   1.914       .  S
C1026      C1027   1.401       .  A
C1026      H1031   1.084       .  S
C1027      C1028   1.406       .  A
C1028     Br1029   1.920       .  S
C1033      C1034   1.409       .  A
C1033      C1038   1.420       .  A
C1033      H1040   1.083       .  S
C1034      C1035   1.417       .  A
C1035      C1036   1.409       .  A
C1035     Br1042   1.922       .  S
C1036      C1037   1.410       .  A
C1036      H1041   1.083       .  S
C1037      C1038   1.422       .  A
C1038     Br1039   1.917   1_556  S
C1043      C1044   1.405       .  A
C1043      C1048   1.397       .  A
C1043      H1050   1.083       .  S
C1044      C1045   1.412       .  A
C1045      C1046   1.391       .  A
C1045     Br1052   1.925       .  S
C1046      C1047   1.402       .  A
C1046      H1051   1.084       .  S
C1047      C1048   1.410       .  A
C1048     Br1049   1.921       .  S
C1053      C1054   1.405       .  A
C1053      C1058   1.398       .  A
C1053      H1060   1.083       .  S
C1054      C1055   1.413       .  A
C1055      C1056   1.402       .  A
C1055     Br1062   1.913       .  S
C1056      C1057   1.402       .  A
C1056      H1061   1.084       .  S
C1057      C1058   1.407       .  A
C1058     Br1059   1.920       .  S
C1063      C1064   1.401       .  A
C1063      C1068   1.404       .  A
C1063      H1070   1.084       .  S
C1064      C1065   1.406       .  A
C1065      C1066   1.403       .  A
C1065     Br1072   1.917       .  S
C1066      C1067   1.409       .  A
C1066      H1071   1.084       .  S
C1067      C1068   1.418       .  A
C1068     Br1069   1.920       .  S
C1073      C1074   1.405       .  A
C1073      C1078   1.394       .  A
C1073      H1080   1.084       .  S
C1074      C1075   1.410       .  A
C1075      C1076   1.391       .  A
C1075     Br1082   1.924       .  S
C1076      C1077   1.403       .  A
C1076      H1081   1.084       .  S
C1077      C1078   1.403       .  A
C1078     Br1079   1.918       .  S
C1083      C1084   1.405       .  A
C1083      C1088   1.399       .  A
C1083      H1090   1.084       .  S
C1084      C1085   1.413       .  A
C1085      C1086   1.396       .  A
C1085     Br1092   1.923       .  S
C1086      C1087   1.404       .  A
C1086      H1091   1.083       .  S
C1087      C1088   1.411       .  A
C1088     Br1089   1.922       .  S
C1093      C1094   1.407       .  A
C1093      C1098   1.397       .  A
C1093      H1100   1.082       .  S
C1094      C1095   1.411       .  A
C1095      C1096   1.406       .  A
C1095     Br1102   1.918       .  S
C1096      C1097   1.408       .  A
C1096      H1101   1.083   1_556  S
C1097      C1098   1.412       .  A
C1098     Br1099   1.923   1_545  S
C1103      C1104   1.402       .  A
C1103      C1108   1.397       .  A
C1103      H1110   1.083       .  S
C1104      C1105   1.406       .  A
C1105      C1106   1.398       .  A
C1105     Br1112   1.916   1_545  S
C1106      C1107   1.401       .  A
C1106      H1111   1.082       .  S
C1107      C1108   1.407       .  A
C1108     Br1109   1.922       .  S
C1113      C1114   1.403       .  A
C1113      C1118   1.393       .  A
C1113      H1120   1.083       .  S
C1114      C1115   1.407       .  A
C1115      C1116   1.400       .  A
C1115     Br1122   1.913       .  S
C1116      C1117   1.405       .  A
C1116      H1121   1.084       .  S
C1117      C1118   1.408       .  A
C1118     Br1119   1.920       .  S
C1123      C1124   1.403       .  A
C1123      C1128   1.401       .  A
C1123      H1130   1.084       .  S
C1124      C1125   1.408       .  A
C1125      C1126   1.404       .  A
C1125     Br1132   1.918       .  S
C1126      C1127   1.408       .  A
C1126      H1131   1.083       .  S
C1127      C1128   1.413       .  A
C1128     Br1129   1.921   1_545  S
C1133      C1134   1.406       .  A
C1133      C1138   1.396       .  A
C1133      H1140   1.083       .  S
C1134      C1135   1.410       .  A
C1135      C1136   1.392       .  A
C1135     Br1142   1.922       .  S
C1136      C1137   1.398       .  A
C1136      H1141   1.083       .  S
C1137      C1138   1.401       .  A
C1138     Br1139   1.918       .  S
C1143      C1144   1.403       .  A
C1143      C1148   1.395       .  A
C1143      H1150   1.083       .  S
C1144      C1145   1.406       .  A
C1145      C1146   1.396       .  A
C1145     Br1152   1.919       .  S
C1146      C1147   1.404       .  A
C1146      H1151   1.084       .  S
C1147      C1148   1.412       .  A
C1148     Br1149   1.923       .  S
C1153      C1154   1.405       .  A
C1153      C1158   1.394       .  A
C1153      H1160   1.084       .  S
C1154      C1155   1.413       .  A
C1155      C1156   1.404       .  A
C1155     Br1162   1.918       .  S
C1156      C1157   1.407       .  A
C1156      H1161   1.083       .  S
C1157      C1158   1.416       .  A
C1158     Br1159   1.926       .  S
C1163      C1164   1.407       .  A
C1163      C1168   1.404       .  A
C1163      H1170   1.083       .  S
C1164      C1165   1.413       .  A
C1165      C1166   1.402       .  A
C1165     Br1172   1.901       .  S
C1166      C1167   1.398       .  A
C1166      H1171   1.083       .  S
C1167      C1168   1.405       .  A
C1168     Br1169   1.914       .  S
C1173      C1174   1.405       .  A
C1173      C1178   1.396       .  A
C1173      H1180   1.084       .  S
C1174      C1175   1.403       .  A
C1175      C1176   1.401       .  A
C1175     Br1182   1.910       .  S
C1176      C1177   1.399       .  A
C1176      H1181   1.078       .  S
C1177      C1178   1.409       .  A
C1178     Br1179   1.921       .  S
C1183      C1184   1.405       .  A
C1183      C1188   1.399       .  A
C1183      H1190   1.084       .  S
C1184      C1185   1.414       .  A
C1185      C1186   1.409       .  A
C1185     Br1192   1.915       .  S
C1186      C1187   1.407       .  A
C1186      H1191   1.083       .  S
C1187      C1188   1.419       .  A
C1188     Br1189   1.920       .  S
C1193      C1194   1.402       .  A
C1193      C1198   1.389       .  A
C1193      H1200   1.084       .  S
C1194      C1195   1.414       .  A
C1195      C1196   1.399       .  A
C1195     Br1202   1.923       .  S
C1196      C1197   1.399       .  A
C1196      H1201   1.082       .  S
C1197      C1198   1.406       .  A
C1198     Br1199   1.921       .  S
C1203      C1204   1.405       .  A
C1203      C1208   1.399       .  A
C1203      H1210   1.084       .  S
C1204      C1205   1.415       .  A
C1205      C1206   1.394       .  A
C1205     Br1212   1.923       .  S
C1206      C1207   1.401       .  A
C1206      H1211   1.084       .  S
C1207      C1208   1.408       .  A
C1208     Br1209   1.911       .  S
C1213      C1214   1.409       .  A
C1213      C1218   1.404       .  A
C1213      H1220   1.084       .  S
C1214      C1215   1.415       .  A
C1215      C1216   1.410       .  A
C1215     Br1222   1.919       .  S
C1216      C1217   1.409       .  A
C1216      H1221   1.083       .  S
C1217      C1218   1.415       .  A
C1218     Br1219   1.921       .  S
C1223      C1224   1.404       .  A
C1223      C1228   1.400       .  A
C1223      H1230   1.084       .  S
C1224      C1225   1.408       .  A
C1225      C1226   1.387       .  A
C1225     Br1232   1.925       .  S
C1226      C1227   1.405       .  A
C1226      H1231   1.084       .  S
C1227      C1228   1.413       .  A
C1228     Br1229   1.920       .  S
C1233      C1234   1.404       .  A
C1233      C1238   1.394       .  A
C1233      H1240   1.084       .  S
C1234      C1235   1.413       .  A
C1235      C1236   1.393       .  A
C1235     Br1242   1.923       .  S
C1236      C1237   1.400       .  A
C1236      H1241   1.085       .  S
C1237      C1238   1.404       .  A
C1238     Br1239   1.919       .  S
C1243      C1244   1.408       .  A
C1243      C1248   1.412   1_655  A
C1243      H1250   1.083       .  S
C1244      C1245   1.415       .  A
C1245      C1246   1.402       .  A
C1245     Br1252   1.922       .  S
C1246      C1247   1.405   1_655  A
C1246      H1251   1.084       .  S
C1247      C1248   1.416       .  A
C1248     Br1249   1.918       .  S
C1253      C1254   1.399       .  A
C1253      C1258   1.397       .  A
C1253      H1260   1.084   1_455  S
C1254      C1255   1.408       .  A
C1255      C1256   1.394       .  A
C1255     Br1262   1.917       .  S
C1256      C1257   1.399       .  A
C1256      H1261   1.084       .  S
C1257      C1258   1.413       .  A
C1258     Br1259   1.921       .  S
C1263      C1264   1.401       .  A
C1263      C1268   1.398       .  A
C1263      H1270   1.083       .  S
C1264      C1265   1.409       .  A
C1265      C1266   1.398       .  A
C1265     Br1272   1.906       .  S
C1266      C1267   1.401       .  A
C1266      H1271   1.084       .  S
C1267      C1268   1.407       .  A
C1268     Br1269   1.915       .  S
C1273      C1274   1.410       .  A
C1273      C1278   1.406   1_455  A
C1273      H1280   1.083   1_455  S
C1274      C1275   1.415       .  A
C1275      C1276   1.403       .  A
C1275     Br1282   1.918       .  S
C1276      C1277   1.404   1_455  A
C1276      H1281   1.083       .  S
C1277      C1278   1.415       .  A
C1278     Br1279   1.922       .  S
C1283      C1284   1.402       .  A
C1283      C1288   1.397       .  A
C1283      H1290   1.084   1_554  S
C1284      C1285   1.412       .  A
C1285      C1286   1.393       .  A
C1285     Br1292   1.922       .  S
C1286      C1287   1.400       .  A
C1286      H1291   1.081       .  S
C1287      C1288   1.407       .  A
C1288     Br1289   1.913   1_554  S
C1293      C1294   1.404       .  A
C1293      C1298   1.402       .  A
C1293      H1300   1.083       .  S
C1294      C1295   1.417       .  A
C1295      C1296   1.403       .  A
C1295     Br1302   1.923       .  S
C1296      C1297   1.407       .  A
C1296      H1301   1.083       .  S
C1297      C1298   1.416       .  A
C1298     Br1299   1.919       .  S
C1303      C1304   1.406       .  A
C1303      C1308   1.399       .  A
C1303      H1310   1.084       .  S
C1304      C1305   1.415   1_655  A
C1305      C1306   1.398       .  A
C1305     Br1312   1.921       .  S
C1306      C1307   1.400   1_455  A
C1306      H1311   1.084       .  S
C1307      C1308   1.409       .  A
C1308     Br1309   1.921       .  S
C1313      C1314   1.406       .  A
C1313      C1318   1.399       .  A
C1313      H1320   1.083       .  S
C1314      C1315   1.413       .  A
C1315      C1316   1.400       .  A
C1315     Br1322   1.920       .  S
C1316      C1317   1.400       .  A
C1316      H1321   1.084       .  S
C1317      C1318   1.406       .  A
C1318     Br1319   1.919       .  S
C1323      C1324   1.402       .  A
C1323      C1328   1.400       .  A
C1323      H1330   1.084       .  S
C1324      C1325   1.409       .  A
C1325      C1326   1.397       .  A
C1325     Br1332   1.920       .  S
C1326      C1327   1.405       .  A
C1326      H1331   1.084       .  S
C1327      C1328   1.414       .  A
C1328     Br1329   1.913       .  S
C1333      C1334   1.405       .  A
C1333      C1338   1.403       .  A
C1333      H1340   1.083       .  S
C1334      C1335   1.416       .  A
C1335      C1336   1.404       .  A
C1335     Br1342   1.922       .  S
C1336      C1337   1.407       .  A
C1336      H1341   1.084       .  S
C1337      C1338   1.414       .  A
C1338     Br1339   1.921       .  S
C1343      C1344   1.404       .  A
C1343      C1348   1.395       .  A
C1343      H1350   1.083       .  S
C1344      C1345   1.403       .  A
C1345      C1346   1.397       .  A
C1345     Br1352   1.908       .  S
C1346      C1347   1.404       .  A
C1346      H1351   1.084       .  S
C1347      C1348   1.410       .  A
C1348     Br1349   1.923       .  S
C1353      C1354   1.408   1_455  A
C1353      C1358   1.409       .  A
C1353      H1360   1.083       .  S
C1354      C1355   1.417       .  A
C1355      C1356   1.401       .  A
C1355     Br1362   1.920       .  S
C1356      C1357   1.403   1_655  A
C1356      H1361   1.084   1_545  S
C1357      C1358   1.416       .  A
C1358     Br1359   1.921       .  S
C1363      C1364   1.408       .  A
C1363      C1368   1.399       .  A
C1363      H1370   1.084       .  S
C1364      C1365   1.413   1_655  A
C1365      C1366   1.403       .  A
C1365     Br1372   1.917       .  S
C1366      C1367   1.401       .  A
C1366      H1371   1.084       .  S
C1367      C1368   1.404   1_455  A
C1368     Br1369   1.920       .  S
C1373      C1374   1.402       .  A
C1373      C1378   1.401       .  A
C1373      H1380   1.083       .  S
C1374      C1375   1.406       .  A
C1375      C1376   1.399       .  A
C1375     Br1382   1.920       .  S
C1376      C1377   1.408       .  A
C1376      H1381   1.083       .  S
C1377      C1378   1.412       .  A
C1378     Br1379   1.920       .  S
C1383      C1384   1.401       .  A
C1383      C1388   1.396       .  A
C1383      H1390   1.083       .  S
C1384      C1385   1.409       .  A
C1385      C1386   1.401       .  A
C1385     Br1392   1.911       .  S
C1386      C1387   1.404       .  A
C1386      H1391   1.084       .  S
C1387      C1388   1.413       .  A
C1388     Br1389   1.921   1_655  S
C1393      C1394   1.400       .  A
C1393      C1398   1.393       .  A
C1393      H1400   1.082       .  S
C1394      C1395   1.409       .  A
C1395      C1396   1.414       .  A
C1395     Br1402   1.914       .  S
C1396      C1397   1.411       .  A
C1396      H1401   1.079       .  S
C1397      C1398   1.417       .  A
C1398     Br1399   1.927       .  S
C1403      C1404   1.402   1_556  A
C1403      C1408   1.392       .  A
C1403      H1410   1.081       .  S
C1404      C1405   1.407       .  A
C1405      C1406   1.395       .  A
C1405     Br1412   1.914       .  S
C1406      C1407   1.403       .  A
C1406      H1411   1.084       .  S
C1407      C1408   1.407   1_554  A
C1408     Br1409   1.918       .  S
C1413      C1414   1.408       .  A
C1413      C1418   1.402       .  A
C1413      H1420   1.084       .  S
C1414      C1415   1.419       .  A
C1415      C1416   1.417       .  A
C1415     Br1422   1.917       .  S
C1416      C1417   1.409       .  A
C1416      H1421   1.083       .  S
C1417      C1418   1.412       .  A
C1418     Br1419   1.922       .  S
C1423      C1424   1.404       .  A
C1423      C1428   1.396       .  A
C1423      H1430   1.083       .  S
C1424      C1425   1.413       .  A
C1425      C1426   1.400       .  A
C1425     Br1432   1.912       .  S
C1426      C1427   1.402       .  A
C1426      H1431   1.084       .  S
C1427      C1428   1.406       .  A
C1428     Br1429   1.917       .  S
C1433      C1434   1.408       .  A
C1433      C1438   1.407       .  A
C1433      H1440   1.082       .  S
C1434      C1435   1.417       .  A
C1435      C1436   1.392       .  A
C1435     Br1442   1.927       .  S
C1436      C1437   1.401       .  A
C1436      H1441   1.084       .  S
C1437      C1438   1.410       .  A
C1438     Br1439   1.917       .  S
C1443      C1444   1.402       .  A
C1443      C1448   1.402       .  A
C1443      H1450   1.084       .  S
C1444      C1445   1.407       .  A
C1445      C1446   1.396       .  A
C1445     Br1452   1.918       .  S
C1446      C1447   1.404       .  A
C1446      H1451   1.084       .  S
C1447      C1448   1.411       .  A
C1448     Br1449   1.916       .  S
C1453      C1454   1.410       .  A
C1453      C1458   1.415       .  A
C1453      H1460   1.082       .  S
C1454      C1455   1.419       .  A
C1455      C1456   1.395       .  A
C1455     Br1462   1.927       .  S
C1456      C1457   1.403       .  A
C1456      H1461   1.084       .  S
C1457      C1458   1.417       .  A
C1458     Br1459   1.916       .  S
C1463      C1464   1.405       .  A
C1463      C1468   1.401       .  A
C1463      H1470   1.083       .  S
C1464      C1465   1.413       .  A
C1465      C1466   1.399       .  A
C1465     Br1472   1.920       .  S
C1466      C1467   1.400       .  A
C1466      H1471   1.084       .  S
C1467      C1468   1.407       .  A
C1468     Br1469   1.915       .  S
C1473      C1474   1.402       .  A
C1473      C1478   1.391       .  A
C1473      H1480   1.084       .  S
C1474      C1475   1.410       .  A
C1475      C1476   1.398       .  A
C1475     Br1482   1.917       .  S
C1476      C1477   1.403       .  A
C1476      H1481   1.084       .  S
C1477      C1478   1.410       .  A
C1478     Br1479   1.921       .  S
C1483      C1484   1.406       .  A
C1483      C1488   1.409       .  A
C1483      H1490   1.083       .  S
C1484      C1485   1.407       .  A
C1485      C1486   1.397       .  A
C1485     Br1492   1.918       .  S
C1486      C1487   1.402       .  A
C1486      H1491   1.084       .  S
C1487      C1488   1.410       .  A
C1488     Br1489   1.918       .  S
C1493      C1494   1.405       .  A
C1493      C1498   1.392       .  A
C1493      H1500   1.084       .  S
C1494      C1495   1.412       .  A
C1495      C1496   1.397       .  A
C1495     Br1502   1.922       .  S
C1496      C1497   1.401       .  A
C1496      H1501   1.084       .  S
C1497      C1498   1.405       .  A
C1498     Br1499   1.920       .  S
C1503      C1504   1.403       .  A
C1503      C1508   1.401       .  A
C1503      H1510   1.084       .  S
C1504      C1505   1.413       .  A
C1505      C1506   1.409       .  A
C1505     Br1512   1.906       .  S
C1506      C1507   1.404       .  A
C1506      H1511   1.084       .  S
C1507      C1508   1.410       .  A
C1508     Br1509   1.919       .  S
C1513      C1514   1.400       .  A
C1513      C1518   1.392       .  A
C1513      H1520   1.084       .  S
C1514      C1515   1.407       .  A
C1515      C1516   1.398       .  A
C1515     Br1522   1.920       .  S
C1516      C1517   1.403       .  A
C1516      H1521   1.083       .  S
C1517      C1518   1.409       .  A
C1518     Br1519   1.922       .  S
C1523      C1524   1.405       .  A
C1523      C1528   1.396       .  A
C1523      H1530   1.084       .  S
C1524      C1525   1.409       .  A
C1525      C1526   1.398       .  A
C1525     Br1532   1.921       .  S
C1526      C1527   1.403       .  A
C1526      H1531   1.084       .  S
C1527      C1528   1.403       .  A
C1528     Br1529   1.918       .  S
C1533      C1534   1.407       .  A
C1533      C1538   1.408       .  A
C1533      H1540   1.083       .  S
C1534      C1535   1.415       .  A
C1535      C1536   1.394       .  A
C1535     Br1542   1.923       .  S
C1536      C1537   1.402       .  A
C1536      H1541   1.085       .  S
C1537      C1538   1.409       .  A
C1538     Br1539   1.915       .  S
C1543      C1544   1.402       .  A
C1543      C1548   1.394       .  A
C1543      H1550   1.084       .  S
C1544      C1545   1.409       .  A
C1545      C1546   1.393       .  A
C1545     Br1552   1.920       .  S
C1546      C1547   1.400       .  A
C1546      H1551   1.084       .  S
C1547      C1548   1.411       .  A
C1548     Br1549   1.920       .  S
C1553      C1554   1.411       .  A
C1553      C1558   1.413       .  A
C1553      H1560   1.083       .  S
C1554      C1555   1.416       .  A
C1555      C1556   1.405       .  A
C1555     Br1562   1.919       .  S
C1556      C1557   1.407       .  A
C1556      H1561   1.084       .  S
C1557      C1558   1.417       .  A
C1558     Br1559   1.919       .  S
C1563      C1564   1.402       .  A
C1563      C1568   1.393       .  A
C1563      H1570   1.084       .  S
C1564      C1565   1.413       .  A
C1565      C1566   1.400       .  A
C1565     Br1572   1.917       .  S
C1566      C1567   1.398       .  A
C1566      H1571   1.084       .  S
C1567      C1568   1.403       .  A
C1568     Br1569   1.916       .  S
C1573      C1574   1.403       .  A
C1573      C1578   1.399       .  A
C1573      H1580   1.083       .  S
C1574      C1575   1.412       .  A
C1575      C1576   1.401       .  A
C1575     Br1582   1.917       .  S
C1576      C1577   1.404       .  A
C1576      H1581   1.084       .  S
C1577      C1578   1.409       .  A
C1578     Br1579   1.918       .  S
C1583      C1584   1.406       .  A
C1583      C1588   1.410       .  A
C1583      H1590   1.084       .  S
C1584      C1585   1.416       .  A
C1585      C1586   1.406       .  A
C1585     Br1592   1.920       .  S
C1586      C1587   1.403       .  A
C1586      H1591   1.084       .  S
C1587      C1588   1.415       .  A
C1588     Br1589   1.918       .  S
C1593      C1594   1.396       .  A
C1593      C1598   1.389       .  A
C1593      H1600   1.084       .  S
C1594      C1595   1.407       .  A
C1595      C1596   1.393       .  A
C1595     Br1602   1.918       .  S
C1596      C1597   1.401       .  A
C1596      H1601   1.084       .  S
C1597      C1598   1.410       .  A
C1598     Br1599   1.923       .  S
C1603      C1604   1.405       .  A
C1603      C1608   1.401       .  A
C1603      H1610   1.084       .  S
C1604      C1605   1.410       .  A
C1605      C1606   1.400       .  A
C1605     Br1612   1.918       .  S
C1606      C1607   1.400       .  A
C1606      H1611   1.084       .  S
C1607      C1608   1.405       .  A
C1608     Br1609   1.917   1_455  S
C1613      C1614   1.402   1_655  A
C1613      C1618   1.396   1_655  A
C1613      H1620   1.084       .  S
C1614      C1615   1.404       .  A
C1615      C1616   1.399       .  A
C1615     Br1622   1.918       .  S
C1616      C1617   1.407       .  A
C1616      H1621   1.083       .  S
C1617      C1618   1.412       .  A
C1618     Br1619   1.922   1_455  S
C1623      C1624   1.401       .  A
C1623      C1628   1.395       .  A
C1623      H1630   1.084       .  S
C1624      C1625   1.407       .  A
C1625      C1626   1.400       .  A
C1625     Br1632   1.915       .  S
C1626      C1627   1.405       .  A
C1626      H1631   1.083       .  S
C1627      C1628   1.415       .  A
C1628     Br1629   1.922   1_565  S
