geometry optimzed in LAMMPS
_audit_creation_date              2020-11-30 
_audit_creation_method            'lammps2cif' 
_symmetry_space_group_name_H-M    'P1' 
_symmetry_Int_Tables_number       1 
_symmetry_cell_setting            triclinic 
loop_ 
_symmetry_equiv_pos_as_xyz 
  x,y,z 
_cell_length_a                    29.97648001 
_cell_length_b                    32.804824316686975 
_cell_length_c                    31.297101870989138 
_cell_angle_alpha                 89.60339748195258 
_cell_angle_beta                  90.27048191641708 
_cell_angle_gamma                 88.97067310861674 
loop_ 
_atom_site_label 
_atom_site_type_symbol 
_atom_site_fract_x 
_atom_site_fract_y 
_atom_site_fract_z 
_atom_site_charge 
O1          O  0.47521067  0.40276123  0.48204821    -0.80200
O2          O  0.54033326  0.54592072  0.45594340    -0.80200
O3          O  0.45266309  0.54958199  0.45398906    -0.80200
O4          O  0.59881884  0.45700317  0.49614690    -0.80100
O5          O  0.48178903  0.60591028  0.48020653    -0.80300
O6          O  0.53848920  0.45564489  0.45760161    -0.80200
O7          O  0.60054571  0.54009803  0.49452506    -0.80200
O8          O  0.45239762  0.46182375  0.45320908    -0.80200
C9          C  0.45383597  0.42232559  0.45295579     1.09500
C10         C  0.58168098  0.55093628  0.45972790     1.09400
C11         C  0.45586544  0.58886839  0.45378330     1.09500
C12         C  0.57976032  0.44842029  0.46124378     1.09400
O13         O  0.54788735  0.41194918  0.53921418    -0.80200
O14         O  0.47536869  0.57489945  0.56025506    -0.80300
O15         O  0.41133799  0.46442160  0.53674109    -0.80200
O16         O  0.57023418  0.54114782  0.58263054    -0.80200
O17         O  0.55409388  0.58960505  0.53674478    -0.80200
O18         O  0.46929387  0.43436810  0.56306710    -0.80200
O19         O  0.56868516  0.45869442  0.58416866    -0.80100
O20         O  0.41519117  0.54559301  0.54077729    -0.80200
Co21       Co  0.50151965  0.44759867  0.50975550     1.51500
Co22       Co  0.50513638  0.55814849  0.50783725     1.51700
Co23       Co  0.44222633  0.50514151  0.49982486     1.51600
Co24       Co  0.57952153  0.49946008  0.53895304     1.51500
O25         O  0.51081791  0.50250072  0.52890032    -1.42100
C26         C  0.56516046  0.42152445  0.57486817     1.09400
C27         C  0.43451857  0.57062334  0.56448198     1.09500
C28         C  0.42802677  0.43978252  0.56332528     1.09500
C29         C  0.57049120  0.57835863  0.57261464     1.09400
O30         O  0.96603268  0.43950930  0.94653512    -0.80200
O31         O  0.05922892  0.59229002  0.97168794    -0.80200
O32         O  0.95844268  0.53223616  0.92740411    -0.80200
O33         O  0.06457486  0.46263205  0.92252570    -0.80100
O34         O  0.96976257  0.58562101  0.96874486    -0.80300
O35         O  0.05068748  0.41541654  0.96890740    -0.80200
O36         O  0.07000952  0.54513897  0.92306737    -0.80200
O37         O  0.90247663  0.47291557  0.95732682    -0.80200
C38         C  0.92363891  0.44403649  0.93931941     1.09500
C39         C  0.07043197  0.58207370  0.93401178     1.09400
C40         C  0.95636233  0.57052164  0.93342525     1.09500
C41         C  0.06548344  0.42538596  0.93258524     1.09400
O42         O  0.04547484  0.45470488  0.05030205    -0.80200
O43         O  0.97182131  0.54872897  0.05488494    -0.80300
O44         O  0.94572186  0.46081488  0.03375540    -0.80200
O45         O  0.11399323  0.54237770  0.00580014    -0.80200
O46         O  0.06230066  0.55147361  0.05452573    -0.80200
O47         O  0.98167927  0.40239375  0.02234437    -0.80200
O48         O  0.10451221  0.46020182  0.00897842    -0.80100
O49         O  0.91878352  0.53805366  0.00936911    -0.80200
Co50       Co  0.00594017  0.45079530  0.00023038     1.51500
Co51       Co  0.01583602  0.56583542  0.01212606     1.51700
Co52       Co  0.95611316  0.49605152  0.97808676     1.51600
Co53       Co  0.08410369  0.50264064  0.96546954     1.51500
O54         O  0.02080246  0.50893636  0.98805195    -1.42100
C55         C  0.08715963  0.45057538  0.04477082     1.09400
C56         C  0.93140608  0.55278419  0.04455527     1.09500
C57         C  0.95219234  0.42243940  0.04244173     1.09500
C58         C  0.10252903  0.55333250  0.04323214     1.09400
C59         C  0.75278847  0.23560984  0.76624368    -0.02500
O60         O  0.43317110  0.04997256  0.96651657    -0.80200
O61         O  0.43444850  0.95182117  0.03610858    -0.80200
O62         O  0.45776416  0.96071437  0.94426047    -0.80200
O63         O  0.47122642  0.04485564  0.10680142    -0.80100
O64         O  0.47231964  0.90196105  0.97621716    -0.80300
O65         O  0.42629816  0.05648592  0.05230098    -0.80200
O66         O  0.47017836  0.96190415  0.09727566    -0.80200
O67         O  0.48475252  0.03671692  0.92041335    -0.80200
C68         C  0.44719367  0.05260330  0.92888252     1.09500
C69         C  0.43683878  0.94823178  0.07641674     1.09400
C70         C  0.45167131  0.92188540  0.94722815     1.09500
C71         C  0.43412345  0.05826932  0.09184591     1.09400
O72         O  0.51251171  0.09477222  0.05611580    -0.80200
O73         O  0.55134697  0.94084564  0.97207327    -0.80300
O74         O  0.56602293  0.02888316  0.96752116    -0.80200
O75         O  0.56375391  0.96438746  0.06791013    -0.80200
O76         O  0.51981867  0.91583164  0.04996809    -0.80200
O77         O  0.52331903  0.08437074  0.97113367    -0.80200
O78         O  0.56141640  0.04682916  0.07361658    -0.80100
O79         O  0.54008414  0.97162193  0.91019429    -0.80200
Co80       Co  0.47426638  0.06755224  0.01170012     1.51500
Co81       Co  0.49053600  0.95041791  0.00379036     1.51700
Co82       Co  0.51370471  0.99483230  0.95963174     1.51600
Co83       Co  0.51635059  0.00445786  0.08244116     1.51500
O84         O  0.49768187  0.00950656  0.02012410    -1.42100
C85         C  0.55060148  0.08417448  0.07092261     1.09400
C86         C  0.56147361  0.94528947  0.93218746     1.09500
C87         C  0.56041253  0.06683083  0.96182303     1.09500
C88         C  0.55482469  0.92709377  0.06893270     1.09400
C89         C  0.24978948  0.76775947  0.74525021    -0.02500
O90         O  0.96367459  0.10266926  0.53098909    -0.80200
O91         O  0.02988668  0.93502651  0.53291064    -0.80200
O92         O  0.88089386  0.97614410  0.50944953    -0.80200
O93         O  0.08762940  0.04230955  0.51054026    -0.80100
O94         O  0.94413671  0.96259488  0.54315741    -0.80300
O95         O  0.02767721  0.04719820  0.55031549    -0.80200
O96         O  0.08818302  0.95934502  0.49840072    -0.80200
O97         O  0.92703320  0.04370443  0.53349350    -0.80200
C98         C  0.93436590  0.08026860  0.54803364     1.09500
C99         C  0.07158993  0.93838722  0.52862597     1.09400
C100        C  0.90111374  0.96081494  0.54177966     1.09500
C101        C  0.06931027  0.05159631  0.54583800     1.09400
O102        O  0.03515501  0.09665249  0.47411174    -0.80200
O103        O  0.95371306  0.89869610  0.48870872    -0.80300
O104        O  0.90474516  0.03077567  0.44369415    -0.80200
O105        O  0.05806572  0.97303800  0.41122898    -0.80200
O106        O  0.02225462  0.92477273  0.44443536    -0.80200
O107        O  0.95329211  0.07929342  0.44947636    -0.80200
O108        O  0.05623835  0.05414328  0.42397239    -0.80100
O109        O  0.93260290  0.94865957  0.44447115    -0.80200
Co110      Co  0.98908865  0.05998802  0.50008903     1.51500
Co111      Co  0.98407800  0.95003918  0.49077458     1.51700
Co112      Co  0.93586293  0.99669166  0.48734332     1.51600
Co113      Co  0.06800033  0.00698268  0.46162781     1.51500
O114        O  0.00178916  0.00773722  0.47560675    -1.42100
C115        C  0.05264256  0.09008697  0.43779027     1.09400
C116        C  0.93313730  0.91014746  0.45452636     1.09500
C117        C  0.91845081  0.06534546  0.43249986     1.09500
C118        C  0.04658986  0.93647659  0.41393876     1.09400
C119        C  0.75113181  0.73247453  0.25111055    -0.02500
C120        C  0.25049606  0.26543993  0.25768575    -0.02500
C121        C  0.74693306  0.27029632  0.24275195    -0.02500
C122        C  0.25274195  0.74741834  0.24768313    -0.02500
C123        C  0.25005327  0.23694026  0.74053248    -0.02500
C124        C  0.76231737  0.76424701  0.75290542    -0.02500
C125        C  0.16786004  0.09738799  0.60522382    -0.27700
C126        C  0.14652087  0.12288099  0.63483200     0.01900
C127        C  0.09955458  0.12229677  0.63748120     0.30000
C128        C  0.07483641  0.09738234  0.60992090    -0.19400
C129        C  0.09617952  0.07254984  0.57936492    -0.28800
C130        C  0.14333650  0.07223903  0.57800813     0.44100
C131        C  0.17365810  0.15112263  0.66122860     0.05300
O132        O  0.07739361  0.14823790  0.66464625    -0.57400
H133        H  0.03873580  0.09896352  0.61126236     0.18200
O134        O  0.16591284  0.04833643  0.54923407    -0.64100
H135        H  0.20392099  0.09719206  0.60288818     0.16600
C136        C  0.17182010  0.15050179  0.70601533     0.28900
C137        C  0.19703004  0.17795188  0.72982381    -0.25000
C138        C  0.22444997  0.20746909  0.71025806    -0.24300
C139        C  0.22882233  0.20544235  0.66498358     0.40300
C140        C  0.20313351  0.17795468  0.64130226    -0.26700
O141        O  0.14720225  0.12172050  0.72689122    -0.58600
H142        H  0.19437534  0.17674338  0.76430445     0.16000
O143        O  0.26063046  0.22700839  0.64359786    -0.60000
H144        H  0.20665394  0.17736819  0.60686507     0.14400
H145        H  0.18327620  0.02839670  0.56680721     0.46300
H146        H  0.12385796  0.13716538  0.74266934     0.41700
H147        H  0.24419478  0.24438120  0.62250610     0.45100
H148        H  0.06336211  0.13043786  0.68631401     0.36600
C149        C  0.10313942  0.14622192  0.34444970    -0.27700
C150        C  0.12165632  0.17978256  0.36469991     0.01900
C151        C  0.11320170  0.18651039  0.40828140     0.30000
C152        C  0.08774533  0.15856914  0.43151398    -0.19400
C153        C  0.07154635  0.12337134  0.41176986    -0.28800
C154        C  0.07829035  0.11808728  0.36745081     0.44100
C155        C  0.15297360  0.20485408  0.34021185     0.05300
O156        O  0.13012533  0.21994148  0.42836816    -0.57400
H157        H  0.08284556  0.16327210  0.46541122     0.18200
O158        O  0.06297810  0.08421706  0.34682669    -0.64100
H159        H  0.10969483  0.14078130  0.31091127     0.16600
C160        C  0.19896730  0.20094827  0.34762799     0.28900
C161        C  0.22885067  0.21962148  0.31998978    -0.25000
C162        C  0.21411823  0.24489646  0.28568777    -0.24300
C163        C  0.16723197  0.24664038  0.27720870     0.40300
C164        C  0.13757084  0.22689721  0.30460602    -0.26700
O165        O  0.21516004  0.17785201  0.38115883    -0.58600
H166        H  0.26422832  0.21520435  0.32606076     0.16000
O167        O  0.15010673  0.26311094  0.24001769    -0.60000
H168        H  0.10223159  0.22755129  0.29706137     0.14400
H169        H  0.04204368  0.09454806  0.32445965     0.46300
H170        H  0.21758382  0.14965959  0.37006613     0.41700
H171        H  0.12779948  0.28416379  0.24863133     0.45100
H172        H  0.15696022  0.20973240  0.44400939     0.36600
C173        C  0.82408307  0.88760145  0.59751387    -0.27700
C174        C  0.83958420  0.88885767  0.63994217     0.01900
C175        C  0.87300983  0.91681144  0.65052379     0.30000
C176        C  0.89182818  0.94130405  0.61860661    -0.19400
C177        C  0.87680702  0.93939482  0.57608002    -0.28800
C178        C  0.84215815  0.91266060  0.56583678     0.44100
C179        C  0.82113750  0.86003130  0.67212027     0.05300
O180        O  0.88776992  0.92022998  0.69185391    -0.57400
H181        H  0.91848760  0.96166810  0.62702771     0.18200
O182        O  0.82727976  0.90924939  0.52450253    -0.64100
H183        H  0.79876799  0.86607271  0.58850427     0.16600
C184        C  0.77488729  0.85573356  0.67625339     0.28900
C185        C  0.75790352  0.82513702  0.70231337    -0.25000
C186        C  0.78584171  0.79784600  0.72599333    -0.24300
C187        C  0.83244833  0.80543370  0.72520377     0.40300
C188        C  0.84952794  0.83523543  0.69745924    -0.26700
O189        O  0.74569233  0.88098775  0.65436092    -0.58600
H190        H  0.72211721  0.82196844  0.70287838     0.16000
O191        O  0.86194509  0.78506103  0.75157044    -0.60000
H192        H  0.88532670  0.83875296  0.69558695     0.14400
H193        H  0.84159813  0.88395019  0.51354906     0.46300
H194        H  0.74342273  0.90609196  0.67175315     0.41700
H195        H  0.86333979  0.80162776  0.77789622     0.45100
H196        H  0.86680211  0.93992651  0.70538096     0.36600
C197        C  0.11248261  0.88899092  0.32245638    -0.27700
C198        C  0.11611565  0.84812680  0.33587393     0.01900
C199        C  0.09214082  0.83574028  0.37222334     0.30000
C200        C  0.06699636  0.86433643  0.39555831    -0.19400
C201        C  0.06568380  0.90586115  0.38374308    -0.28800
C202        C  0.08791007  0.91775166  0.34607299     0.44100
C203        C  0.14846450  0.82006234  0.31426817     0.05300
O204        O  0.09455285  0.79605813  0.38626049    -0.57400
H205        H  0.05044197  0.85422286  0.42434367     0.18200
O206        O  0.08673711  0.95759619  0.33245575    -0.64100
H207        H  0.13082577  0.89925661  0.29478242     0.16600
C208        C  0.14813817  0.81488104  0.26977251     0.28900
C209        C  0.18152247  0.79121318  0.25010133    -0.25000
C210        C  0.21636769  0.77156835  0.27366830    -0.24300
C211        C  0.21728161  0.77874105  0.31864730     0.40300
C212        C  0.18293088  0.80152690  0.33817920    -0.26700
O213        O  0.11461337  0.83206609  0.24525516    -0.58600
H214        H  0.17992236  0.78777493  0.21574374     0.16000
O215        O  0.25225289  0.76581631  0.34403186    -0.60000
H216        H  0.18470823  0.80663696  0.37231688     0.14400
H217        H  0.11560116  0.96902949  0.34171898     0.46300
H218        H  0.12864840  0.85464925  0.22927774     0.41700
H219        H  0.26654123  0.79079799  0.35479393     0.45100
H220        H  0.06946178  0.78232882  0.37187960     0.36600
C221        C  0.88422624  0.86230681  0.35434629    -0.27700
C222        C  0.86304080  0.82772866  0.37083753     0.01900
C223        C  0.86871083  0.81838601  0.41470093     0.30000
C224        C  0.89327717  0.84431014  0.44135141    -0.19400
C225        C  0.91205254  0.88022529  0.42521122    -0.28800
C226        C  0.90844739  0.88827677  0.38090800     0.44100
C227        C  0.83349519  0.80328287  0.34222853     0.05300
O228        O  0.84898025  0.78487241  0.43228756    -0.57400
H229        H  0.89604836  0.83714262  0.47510379     0.18200
O230        O  0.92824879  0.92168387  0.36310312    -0.64100
H231        H  0.88144893  0.86958517  0.32060276     0.16600
C232        C  0.79984095  0.82263641  0.31753094     0.28900
C233        C  0.77402852  0.80036032  0.28872116    -0.25000
C234        C  0.78025264  0.75776077  0.28325714    -0.24300
C235        C  0.81104030  0.73801473  0.31189568     0.40300
C236        C  0.83807059  0.76072071  0.33963955    -0.26700
O237        O  0.79089743  0.86352763  0.32212865    -0.58600
H238        H  0.74779428  0.81706449  0.27220964     0.16000
O239        O  0.81660814  0.69641756  0.31148308    -0.60000
H240        H  0.86296643  0.74485025  0.35901369     0.14400
H241        H  0.95875226  0.91223887  0.35532862     0.46300
H242        H  0.77120347  0.86556262  0.34743787     0.41700
H243        H  0.80208847  0.68655503  0.33793240     0.45100
H244        H  0.81820062  0.79399738  0.43939803     0.36600
C245        C  0.78268414  0.16575081  0.29688316    -0.27700
C246        C  0.81577322  0.17823830  0.32532002     0.01900
C247        C  0.82365459  0.22022897  0.32909488     0.30000
C248        C  0.80051264  0.24850791  0.30308106    -0.19400
C249        C  0.76931887  0.23629872  0.27180249    -0.28800
C250        C  0.75846702  0.19394197  0.27159180     0.44100
C251        C  0.84176669  0.14736448  0.35096153     0.05300
O252        O  0.85400344  0.23411941  0.35824220    -0.57400
H253        H  0.80793846  0.28051660  0.30654530     0.18200
O254        O  0.72347927  0.17919397  0.24832831    -0.64100
H255        H  0.77511798  0.13368202  0.29434957     0.16600
C256        C  0.82052129  0.11694195  0.37523359     0.28900
C257        C  0.84596251  0.08894385  0.39976416    -0.25000
C258        C  0.89274443  0.09106447  0.40133421    -0.24300
C259        C  0.91391762  0.12079202  0.37614690     0.40300
C260        C  0.88857493  0.14835627  0.35121662    -0.26700
O261        O  0.77486590  0.11513113  0.37642938    -0.58600
H262        H  0.82887479  0.06670605  0.41917814     0.16000
O263        O  0.95948387  0.12337155  0.37575348    -0.60000
H264        H  0.90565244  0.17080853  0.33207016     0.14400
H265        H  0.70007235  0.17248285  0.26939067     0.46300
H266        H  0.76566380  0.13413001  0.39940953     0.41700
H267        H  0.96937445  0.10346913  0.35393245     0.45100
H268        H  0.83744447  0.23609601  0.38553313     0.36600
C269        C  0.17475847  0.90046591  0.59071788    -0.27700
C270        C  0.15536209  0.87509522  0.62155694     0.01900
C271        C  0.10878331  0.87039631  0.62106404     0.30000
C272        C  0.08240203  0.89132217  0.59094857    -0.19400
C273        C  0.10148205  0.91667554  0.55981787    -0.28800
C274        C  0.14836033  0.92100566  0.55977181     0.44100
C275        C  0.18344562  0.85209682  0.65319741     0.05300
O276        O  0.08863986  0.84456825  0.64939182    -0.57400
H277        H  0.04667075  0.88701918  0.59174529     0.18200
O278        O  0.16866509  0.94383335  0.52869764    -0.64100
H279        H  0.21055886  0.90438033  0.59051109     0.16600
C280        C  0.21937083  0.82715610  0.64024116     0.28900
C281        C  0.24100481  0.80128775  0.66980378    -0.25000
C282        C  0.22705489  0.79851123  0.71299408    -0.24300
C283        C  0.19460273  0.82773124  0.72646506     0.40300
C284        C  0.17261591  0.85323316  0.69669394    -0.26700
O285        O  0.23213776  0.82608758  0.59820891    -0.58600
H286        H  0.26891683  0.78347018  0.65803566     0.16000
O287        O  0.18248361  0.83044408  0.76849955    -0.60000
H288        H  0.14635515  0.87368105  0.70766586     0.14400
H289        H  0.18921185  0.96230535  0.54373224     0.46300
H290        H  0.26070171  0.84084804  0.59710697     0.41700
H291        H  0.19598543  0.85593514  0.77892396     0.45100
H292        H  0.08869806  0.81766456  0.63511805     0.36600
C293        C  0.64431072  0.13503740  0.13254242    -0.27700
C294        C  0.63405371  0.17669400  0.12672271     0.01900
C295        C  0.59825718  0.18781122  0.09940143     0.30000
C296        C  0.57204773  0.15746244  0.08058789    -0.19400
C297        C  0.58126038  0.11570492  0.08793964    -0.28800
C298        C  0.61882603  0.10483499  0.11325935     0.44100
C299        C  0.66166704  0.20722525  0.14972709     0.05300
O300        O  0.59002770  0.22804408  0.08932955    -0.57400
H301        H  0.54431783  0.16675884  0.06021972     0.18200
O302        O  0.63103378  0.06475746  0.11974148    -0.64100
H303        H  0.67204191  0.12568388  0.15290703     0.16600
C304        C  0.64275775  0.23704418  0.17675561     0.28900
C305        C  0.67008255  0.25922769  0.20461790    -0.25000
C306        C  0.71654982  0.25134202  0.20753992    -0.24300
C307        C  0.73550380  0.22503889  0.17616847     0.40300
C308        C  0.70822371  0.20314480  0.14846234    -0.26700
O309        O  0.59735582  0.24254239  0.17875102    -0.58600
H310        H  0.65405579  0.28172330  0.22464360     0.16000
O311        O  0.78055236  0.21702687  0.17537306    -0.60000
H312        H  0.72364312  0.18119483  0.12714955     0.14400
H313        H  0.61731049  0.05696516  0.14732457     0.46300
H314        H  0.59128798  0.27003593  0.16640766     0.41700
H315        H  0.79157886  0.23137775  0.14959928     0.45100
H316        H  0.55947479  0.23425326  0.09977183     0.36600
C317        C  0.34402622  0.13281306  0.12897634    -0.27700
C318        C  0.34748729  0.12975091  0.17356210     0.01900
C319        C  0.37679196  0.09995325  0.19142164     0.30000
C320        C  0.40370263  0.07557940  0.16456061    -0.19400
C321        C  0.40165787  0.08018286  0.11984877    -0.28800
C322        C  0.37040797  0.10851161  0.10228629     0.44100
C323        C  0.32216836  0.16007699  0.19982675     0.05300
O324        O  0.37837810  0.09374505  0.23484365    -0.57400
H325        H  0.42668244  0.05347205  0.17880573     0.18200
O326        O  0.36742242  0.11498397  0.05901469    -0.64100
H327        H  0.32190538  0.15555079  0.11455255     0.16600
C328        C  0.34396348  0.18545701  0.22891688     0.28900
C329        C  0.32092740  0.21830603  0.24763735    -0.25000
C330        C  0.27605297  0.22847785  0.23672492    -0.24300
C331        C  0.25365405  0.20068887  0.20969803     0.40300
C332        C  0.27665180  0.16734244  0.19164736    -0.26700
O333        O  0.38869694  0.18016876  0.23720308    -0.58600
H334        H  0.33921908  0.23547406  0.27095556     0.16000
O335        O  0.20890306  0.20548071  0.20121378    -0.60000
H336        H  0.25893025  0.14752665  0.17010481     0.14400
H337        H  0.34254952  0.09774203  0.04930477     0.46300
H338        H  0.39075606  0.17137542  0.26755342     0.41700
H339        H  0.20631279  0.21044088  0.16999093     0.45100
H340        H  0.40959003  0.09900555  0.24359493     0.36600
C341        C  0.36499942  0.85905206  0.10776428    -0.27700
C342        C  0.34519426  0.87268177  0.14588129     0.01900
C343        C  0.35412606  0.91275046  0.15966653     0.30000
C344        C  0.38382188  0.93728179  0.13681342    -0.19400
C345        C  0.40339487  0.92338807  0.09889578    -0.28800
C346        C  0.39318857  0.88413445  0.08410470     0.44100
C347        C  0.31772794  0.84392366  0.17181862     0.05300
O348        O  0.33396579  0.92839200  0.19535888    -0.57400
H349        H  0.39122740  0.96744713  0.14850545     0.18200
O350        O  0.41200122  0.86928923  0.04734776    -0.64100
H351        H  0.35979059  0.82826583  0.09676852     0.16600
C352        C  0.28703396  0.81759887  0.15248972     0.28900
C353        C  0.26639246  0.78712016  0.17656731    -0.25000
C354        C  0.27501173  0.78189282  0.22079046    -0.24300
C355        C  0.30125081  0.81209323  0.24074866     0.40300
C356        C  0.32373875  0.84113458  0.21624394    -0.26700
O357        O  0.27665250  0.82142872  0.10991023    -0.58600
H358        H  0.24270858  0.76827615  0.16013671     0.16000
O359        O  0.30813401  0.81148563  0.28406887    -0.60000
H360        H  0.34693931  0.86086224  0.23228075     0.14400
H361        H  0.44018895  0.85550165  0.05657359     0.46300
H362        H  0.25019441  0.83999834  0.10875376     0.41700
H363        H  0.29137393  0.83555141  0.29499752     0.45100
H364        H  0.30579260  0.94131048  0.18487935     0.36600
C365        C  0.66409068  0.82346246  0.80898290    -0.27700
C366        C  0.68665073  0.84308395  0.84176001     0.01900
C367        C  0.73296013  0.83774936  0.84562109     0.30000
C368        C  0.75595085  0.81249088  0.81687455    -0.19400
C369        C  0.73344536  0.79035196  0.78472451    -0.28800
C370        C  0.68655006  0.79805378  0.78019617     0.44100
C371        C  0.66109268  0.87202124  0.86853282     0.05300
O372        O  0.75613498  0.85749809  0.87692125    -0.57400
H373        H  0.79188452  0.80980839  0.81989370     0.18200
O374        O  0.66293731  0.78542536  0.74515951    -0.64100
H375        H  0.62863672  0.82925067  0.80455432     0.16600
C376        C  0.64667458  0.90962572  0.85114709     0.28900
C377        C  0.61576656  0.93394131  0.87313292    -0.25000
C378        C  0.59808602  0.92101832  0.91240071    -0.24300
C379        C  0.61364576  0.88374509  0.93041642     0.40300
C380        C  0.64501663  0.85959516  0.90844688    -0.26700
O381        O  0.66167722  0.92221310  0.81194481    -0.58600
H382        H  0.60458022  0.96245255  0.85865487     0.16000
O383        O  0.59590262  0.86905298  0.96766101    -0.60000
H384        H  0.65507093  0.83015888  0.92154020     0.14400
H385        H  0.63798318  0.76907900  0.75639712     0.46300
H386        H  0.63875115  0.91336288  0.79118784     0.41700
H387        H  0.61675892  0.87749760  0.99050436     0.45100
H388        H  0.76449395  0.88393883  0.86395867     0.36600
C389        C  0.38291585  0.14228811  0.88192292    -0.27700
C390        C  0.36798117  0.12700366  0.84265331     0.01900
C391        C  0.38286768  0.08771497  0.83005960     0.30000
C392        C  0.41030918  0.06394242  0.85746046    -0.19400
C393        C  0.42251281  0.07857169  0.89777210    -0.28800
C394        C  0.40962800  0.11845794  0.90934407     0.44100
C395        C  0.33622221  0.15230122  0.81620269     0.05300
O396        O  0.36968196  0.07168944  0.79178075    -0.57400
H397        H  0.42048861  0.03347951  0.84797130     0.18200
O398        O  0.42285874  0.13442846  0.94769022    -0.64100
H399        H  0.37342002  0.17285060  0.89166644     0.16600
C400        C  0.29885943  0.17158374  0.83496852     0.28900
C401        C  0.27169919  0.19846727  0.81108885    -0.25000
C402        C  0.28021491  0.20686961  0.76750888    -0.24300
C403        C  0.31464645  0.18330563  0.74780716     0.40300
C404        C  0.34318648  0.15793612  0.77231699    -0.26700
O405        O  0.28802581  0.16387470  0.87675746    -0.58600
H406        H  0.24300973  0.21147034  0.82707557     0.16000
O407        O  0.32264225  0.18702329  0.70486547    -0.60000
H408        H  0.37129124  0.14312124  0.75685743     0.14400
H409        H  0.45324320  0.14485599  0.94258863     0.46300
H410        H  0.26793204  0.14020433  0.87577235     0.41700
H411        H  0.31138853  0.16160365  0.69204495     0.45100
H412        H  0.34117339  0.05796516  0.79785081     0.36600
C413        C  0.64250894  0.88453341  0.14699278    -0.27700
C414        C  0.63790232  0.84228281  0.14254884     0.01900
C415        C  0.60538181  0.82798202  0.11368819     0.30000
C416        C  0.57875321  0.85564345  0.08978343    -0.19400
C417        C  0.58391206  0.89796371  0.09378906    -0.28800
C418        C  0.61614659  0.91216442  0.12307956     0.44100
C419        C  0.66646445  0.81371912  0.16891905     0.05300
O420        O  0.59937218  0.78698108  0.10842463    -0.57400
H421        H  0.55408852  0.84385832  0.06791251     0.18200
O422        O  0.62095570  0.95307827  0.13016611    -0.64100
H423        H  0.66624581  0.89632311  0.16978913     0.16600
C424        C  0.71316226  0.81759689  0.17114822     0.28900
C425        C  0.73897306  0.79099299  0.19698056    -0.25000
C426        C  0.71950327  0.76043732  0.22268911    -0.24300
C427        C  0.67267079  0.75474256  0.21707097     0.40300
C428        C  0.64695558  0.78200196  0.19195274    -0.26700
O429        O  0.73414725  0.84721641  0.14799476    -0.58600
H430        H  0.77478739  0.79480410  0.19770025     0.16000
O431        O  0.65129536  0.72182544  0.23403743    -0.60000
H432        H  0.61123721  0.77780997  0.19013742     0.14400
H433        H  0.64620187  0.96130820  0.11184554     0.46300
H434        H  0.73853301  0.83542763  0.11919666     0.41700
H435        H  0.64662970  0.70298105  0.20984353     0.45100
H436        H  0.62022311  0.77887924  0.08536506     0.36600
C437        C  0.29344403  0.82461647  0.84659263    -0.27700
C438        C  0.33130318  0.84304348  0.83026215     0.01900
C439        C  0.34044239  0.84024766  0.78648889     0.30000
C440        C  0.31274442  0.81747960  0.75993910    -0.19400
C441        C  0.27653627  0.79530506  0.77648016    -0.28800
C442        C  0.26527824  0.80215121  0.82030513     0.44100
C443        C  0.36178464  0.86374620  0.85984228     0.05300
O444        O  0.37779776  0.85772717  0.76980033    -0.57400
H445        H  0.32096624  0.81538129  0.72635083     0.18200
O446        O  0.22684314  0.78779350  0.83820983    -0.64100
H447        H  0.28540588  0.82790544  0.88014493     0.16600
C448        C  0.36337027  0.90646694  0.86168402     0.28900
C449        C  0.39261627  0.92509311  0.89034482    -0.25000
C450        C  0.42012606  0.90149357  0.91793124    -0.24300
C451        C  0.41788846  0.85855098  0.91610720     0.40300
C452        C  0.38869465  0.84013228  0.88744219    -0.26700
O453        O  0.33636848  0.93016378  0.83573148    -0.58600
H454        H  0.39355754  0.95808545  0.89105237     0.16000
O455        O  0.44422272  0.83412445  0.94192387    -0.60000
H456        H  0.38733687  0.80715879  0.88642813     0.14400
H457        H  0.20873567  0.81216932  0.84612863     0.46300
H458        H  0.30983781  0.93694411  0.85330037     0.41700
H459        H  0.47204243  0.82933981  0.92552560     0.45100
H460        H  0.36815480  0.88562621  0.76103688     0.36600
C461        C  0.84614714  0.09613886  0.63409919    -0.27700
C462        C  0.86179797  0.13113943  0.65432761     0.01900
C463        C  0.90267706  0.14748817  0.64158459     0.30000
C464        C  0.92625501  0.12999135  0.60766649    -0.19400
C465        C  0.90973133  0.09597094  0.58582415    -0.28800
C466        C  0.86993203  0.07824843  0.60035612     0.44100
C467        C  0.83249484  0.15379360  0.68413396     0.05300
O468        O  0.91893035  0.18162755  0.66088188    -0.57400
H469        H  0.95721176  0.14374418  0.59790209     0.18200
O470        O  0.85247561  0.04511945  0.58017544    -0.64100
H471        H  0.81453333  0.08345227  0.64357830     0.16600
C472        C  0.79266444  0.17175278  0.66903385     0.28900
C473        C  0.76688455  0.19640447  0.69575872    -0.25000
C474        C  0.78094269  0.20590470  0.73776033    -0.24300
C475        C  0.81879870  0.18390083  0.75398736     0.40300
C476        C  0.84473058  0.15906081  0.72691238    -0.26700
O477        O  0.77889813  0.16592883  0.62768742    -0.58600
H478        H  0.73574160  0.20815924  0.68276027     0.16000
O479        O  0.83039981  0.18613485  0.79634880    -0.60000
H480        H  0.87455859  0.14396369  0.73934088     0.14400
H481        H  0.85354720  0.02276952  0.60166429     0.46300
H482        H  0.79307629  0.18788376  0.61088538     0.41700
H483        H  0.86099626  0.19713318  0.79719968     0.45100
H484        H  0.90497341  0.20498472  0.64521863     0.36600
C485        C  0.71523952  0.17853353  0.86996947    -0.27700
C486        C  0.68030662  0.15547876  0.85401225     0.01900
C487        C  0.67159243  0.15569136  0.80995061     0.30000
C488        C  0.69680089  0.18005417  0.78269278    -0.19400
C489        C  0.72946625  0.20669054  0.79862250    -0.28800
C490        C  0.74067559  0.20299473  0.84290671     0.44100
C491        C  0.65244515  0.13218225  0.88392910     0.05300
O492        O  0.63650682  0.13435193  0.79363696    -0.57400
H493        H  0.68893481  0.17991762  0.74888400     0.18200
O494        O  0.77632553  0.22263452  0.86048819    -0.64100
H495        H  0.72311740  0.17735909  0.90380134     0.16600
C496        C  0.65037337  0.08949012  0.88174455     0.28900
C497        C  0.62181104  0.06843883  0.90890274    -0.25000
C498        C  0.59477567  0.08948754  0.93837647    -0.24300
C499        C  0.59807799  0.13213906  0.94150044     0.40300
C500        C  0.62717284  0.15311147  0.91467059    -0.26700
O501        O  0.67547632  0.06819965  0.85261264    -0.58600
H502        H  0.61960572  0.03566176  0.90567690     0.16000
O503        O  0.57329370  0.15353023  0.97078971    -0.60000
H504        H  0.62905281  0.18598173  0.91698163     0.14400
H505        H  0.79714615  0.20092926  0.87104703     0.46300
H506        H  0.70271275  0.05921555  0.86839907     0.41700
H507        H  0.54740678  0.16491738  0.95453667     0.45100
H508        H  0.65019890  0.11044159  0.77920262     0.36600
C509        C  0.18656826  0.35986427  0.21172487    -0.27700
C510        C  0.18934678  0.35423644  0.16760020     0.01900
C511        C  0.21458964  0.32099698  0.15201557     0.30000
C512        C  0.23541115  0.29333029  0.18049672    -0.19400
C513        C  0.22980641  0.29673305  0.22517716    -0.28800
C514        C  0.20603837  0.33175107  0.24029922     0.44100
C515        C  0.16403934  0.38218872  0.13836823     0.05300
O516        O  0.21850434  0.31482978  0.10888263    -0.57400
H517        H  0.25581005  0.26929985  0.16696654     0.18200
O518        O  0.20138159  0.33866529  0.28327575    -0.64100
H519        H  0.16837446  0.38595109  0.22427712     0.16600
C520        C  0.11764685  0.38794006  0.14305921     0.28900
C521        C  0.09349920  0.41173163  0.11342598    -0.25000
C522        C  0.11480539  0.43047935  0.07871371    -0.24300
C523        C  0.16172631  0.42674095  0.07556338     0.40300
C524        C  0.18586761  0.40264122  0.10517234    -0.26700
O525        O  0.09513032  0.36821278  0.17493510    -0.58600
H526        H  0.05760468  0.41415269  0.11690985     0.16000
O527        O  0.18440214  0.44651767  0.04384628    -0.60000
H528        H  0.22173136  0.39952639  0.10190550     0.14400
H529        H  0.16942676  0.33451661  0.28971030     0.46300
H530        H  0.08829246  0.38943450  0.19647995     0.41700
H531        H  0.18996160  0.42566988  0.02159945     0.45100
H532        H  0.19539021  0.29468022  0.10175770     0.36600
C533        C  0.18403072  0.62976922  0.08692037    -0.27700
C534        C  0.18110793  0.62250998  0.13116373     0.01900
C535        C  0.15671819  0.58868549  0.14554512     0.30000
C536        C  0.13318446  0.56485196  0.11634442    -0.19400
C537        C  0.13445822  0.57331791  0.07233247    -0.28800
C538        C  0.16130883  0.60528820  0.05761086     0.44100
C539        C  0.19998782  0.65229854  0.16203328     0.05300
O540        O  0.15437872  0.57946897  0.18828112    -0.57400
H541        H  0.11281564  0.54031311  0.12822159     0.18200
O542        O  0.16207891  0.61540143  0.01503068    -0.64100
H543        H  0.20205839  0.65581697  0.07510510     0.16600
C544        C  0.24456446  0.66465924  0.15993498     0.28900
C545        C  0.26033678  0.69436059  0.18808941    -0.25000
C546        C  0.23229218  0.71365398  0.21851846    -0.24300
C547        C  0.18845859  0.69798987  0.22274594     0.40300
C548        C  0.17259417  0.66900961  0.19385769    -0.26700
O549        O  0.27345943  0.64682211  0.13147055    -0.58600
H550        H  0.29480673  0.70315191  0.18540404     0.16000
O551        O  0.16095775  0.70915177  0.25568930    -0.60000
H552        H  0.13839940  0.65923433  0.19672861     0.14400
H553        H  0.18799689  0.60009763  0.00325678     0.46300
H554        H  0.27797122  0.66759768  0.10880654     0.41700
H555        H  0.16164653  0.68576006  0.27593689     0.45100
H556        H  0.18312878  0.56550119  0.19527913     0.36600
C557        C  0.84911573  0.68222602  0.18494040    -0.27700
C558        C  0.82582632  0.65794616  0.15582514     0.01900
C559        C  0.77886015  0.66026077  0.15635860     0.30000
C560        C  0.75660188  0.68412861  0.18694561    -0.19400
C561        C  0.77963285  0.70783280  0.21745307    -0.28800
C562        C  0.82695497  0.70854142  0.21334463     0.44100
C563        C  0.85099623  0.63143151  0.12469470     0.05300
O564        O  0.75402642  0.63968406  0.12687948    -0.57400
H565        H  0.72055596  0.68378971  0.18702647     0.18200
O566        O  0.85262651  0.73557004  0.23514799    -0.64100
H567        H  0.88523001  0.68158817  0.18535733     0.16600
C568        C  0.88982842  0.64551664  0.10420990     0.28900
C569        C  0.91538995  0.61929125  0.07862476    -0.25000
C570        C  0.90192671  0.57936112  0.07054084    -0.24300
C571        C  0.86177829  0.56582643  0.08820638     0.40300
C572        C  0.83715563  0.59139282  0.11580169    -0.26700
O573        O  0.90303008  0.68510278  0.10844518    -0.58600
H574        H  0.94570281  0.63050955  0.06430790     0.16000
O575        O  0.84684359  0.52751176  0.07936146    -0.60000
H576        H  0.80770037  0.57942453  0.13091681     0.14400
H577        H  0.85268546  0.76054952  0.21711848     0.46300
H578        H  0.88477764  0.70090287  0.08739892     0.41700
H579        H  0.85520106  0.51064215  0.10465223     0.45100
H580        H  0.75514927  0.65643995  0.10041822     0.36600
C581        C  0.12122593  0.67821341  0.88798797    -0.27700
C582        C  0.13072475  0.66567165  0.84627295     0.01900
C583        C  0.11772602  0.62701477  0.83265880     0.30000
C584        C  0.09642397  0.60083983  0.86107747    -0.19400
C585        C  0.08791076  0.61259895  0.90350336    -0.28800
C586        C  0.09973239  0.65214898  0.91655467     0.44100
C587        C  0.15935631  0.69082496  0.81911131     0.05300
O588        O  0.12832669  0.61358523  0.79250263    -0.57400
H589        H  0.08788232  0.57069598  0.85013725     0.18200
O590        O  0.09305626  0.66482305  0.95773032    -0.64100
H591        H  0.13193507  0.70778960  0.89884524     0.16600
C592        C  0.14163813  0.71713354  0.78762797     0.28900
C593        C  0.17019137  0.74103529  0.76291956    -0.25000
C594        C  0.21689824  0.74019593  0.77008146    -0.24300
C595        C  0.23407203  0.71151020  0.80071318     0.40300
C596        C  0.20539140  0.68749661  0.82466840    -0.26700
O597        O  0.09639906  0.72024541  0.78133958    -0.58600
H598        H  0.15519441  0.75972347  0.73805757     0.16000
O599        O  0.27909945  0.70736645  0.80815735    -0.60000
H600        H  0.21925744  0.66644675  0.84828138     0.14400
H601        H  0.06358039  0.67903763  0.95731618     0.46300
H602        H  0.08949259  0.69936458  0.75964196     0.41700
H603        H  0.28428731  0.71837201  0.83716436     0.45100
H604        H  0.10255880  0.62188384  0.77425800     0.36600
C605        C  0.90860718  0.66548919  0.87769182    -0.27700
C606        C  0.88210834  0.64857806  0.84558475     0.01900
C607        C  0.88311156  0.60603567  0.83998464     0.30000
C608        C  0.90910505  0.58100919  0.86739262    -0.19400
C609        C  0.93407184  0.59777733  0.90106544    -0.28800
C610        C  0.93420153  0.64068459  0.90533354     0.44100
C611        C  0.85057480  0.67562955  0.82131636     0.05300
O612        O  0.85736632  0.58850652  0.80904028    -0.57400
H613        H  0.90814067  0.54826822  0.86332667     0.18200
O614        O  0.95877727  0.65889603  0.93672698    -0.64100
H615        H  0.90835090  0.69821943  0.88220976     0.16600
C616        C  0.81676182  0.69697071  0.84301148     0.28900
C617        C  0.78876421  0.72457650  0.82113100    -0.25000
C618        C  0.79419034  0.73325313  0.77703663    -0.24300
C619        C  0.82568105  0.70829426  0.75476576     0.40300
C620        C  0.85401987  0.68066560  0.77699415    -0.26700
O621        O  0.81043329  0.69071829  0.88593131    -0.58600
H622        H  0.76193732  0.73809165  0.83936777     0.16000
O623        O  0.83026300  0.71175914  0.71134236    -0.60000
H624        H  0.87911424  0.66348936  0.75956389     0.14400
H625        H  0.93745144  0.66429023  0.96025531     0.46300
H626        H  0.79052948  0.66694854  0.88788110     0.41700
H627        H  0.81734133  0.68658920  0.69948083     0.45100
H628        H  0.82867489  0.58248413  0.82320798     0.36600
C629        C  0.10714690  0.32572366  0.88163058    -0.27700
C630        C  0.13525542  0.34080788  0.84965382     0.01900
C631        C  0.13844625  0.38314437  0.84399751     0.30000
C632        C  0.11407117  0.40981504  0.87008067    -0.19400
C633        C  0.08695602  0.39519894  0.90324920    -0.28800
C634        C  0.08332894  0.35252965  0.90868095     0.44100
C635        C  0.16303645  0.31267676  0.82341111     0.05300
O636        O  0.16546529  0.39875344  0.81287199    -0.57400
H637        H  0.11776629  0.44228789  0.86509925     0.18200
O638        O  0.05823298  0.33685235  0.94129965    -0.64100
H639        H  0.10470016  0.29310331  0.88646195     0.16600
C640        C  0.20949505  0.31061553  0.82900053     0.28900
C641        C  0.23590851  0.28640776  0.80207795    -0.25000
C642        C  0.21719175  0.26252397  0.76925097    -0.24300
C643        C  0.17010138  0.26699721  0.76241441     0.40300
C644        C  0.14375465  0.29068670  0.79021073    -0.26700
O645        O  0.22961849  0.33288590  0.86035302    -0.58600
H646        H  0.27167425  0.28591746  0.80716460     0.16000
O647        O  0.14923877  0.25080089  0.72752673    -0.60000
H648        H  0.10814953  0.29348709  0.78444023     0.14400
H649        H  0.03638959  0.31861875  0.92764756     0.46300
H650        H  0.22755470  0.31597900  0.88663645     0.41700
H651        H  0.14557987  0.27364153  0.70681748     0.45100
H652        H  0.19273231  0.40752341  0.82807176     0.36600
C653        C  0.79808775  0.34958355  0.16491950    -0.27700
C654        C  0.84351262  0.33949048  0.16598446     0.01900
C655        C  0.85845362  0.30661932  0.19144981     0.30000
C656        C  0.82814669  0.28483863  0.21634325    -0.19400
C657        C  0.78194155  0.29505111  0.21656535    -0.28800
C658        C  0.76740741  0.32751517  0.18906182     0.44100
C659        C  0.87391583  0.36035783  0.13627136     0.05300
O660        O  0.90274279  0.29527969  0.19188683    -0.57400
H661        H  0.84137787  0.25871416  0.23358855     0.18200
O662        O  0.72283345  0.33725611  0.18489457    -0.64100
H663        H  0.78606486  0.37397004  0.14409730     0.16600
C664        C  0.88820351  0.34050299  0.09899165     0.28900
C665        C  0.91428501  0.36104245  0.06925687    -0.25000
C666        C  0.92611603  0.40172682  0.07574880    -0.24300
C667        C  0.91266203  0.42149023  0.11354433     0.40300
C668        C  0.88634426  0.40084045  0.14342323    -0.26700
O669        O  0.87598968  0.30119773  0.09091737    -0.58600
H670        H  0.92432224  0.34538879  0.04037560     0.16000
O671        O  0.92546020  0.46060064  0.12180223    -0.60000
H672        H  0.87553525  0.41637622  0.17210986     0.14400
H673        H  0.71917809  0.36540443  0.19588366     0.46300
H674        H  0.84642732  0.30361660  0.07666409     0.41700
H675        H  0.95547549  0.45780798  0.13509993     0.45100
H676        H  0.90519018  0.27203255  0.17189341     0.36600
C677        C  0.89295414  0.34869755  0.87819417    -0.27700
C678        C  0.85395544  0.36138317  0.85661570     0.01900
C679        C  0.83839050  0.40194936  0.86164014     0.30000
C680        C  0.86131544  0.42869335  0.88839980    -0.19400
C681        C  0.90044854  0.41594892  0.90991666    -0.28800
C682        C  0.91619293  0.37553432  0.90437844     0.44100
C683        C  0.82858183  0.33130762  0.83118483     0.05300
O684        O  0.80066287  0.41576418  0.84075189    -0.57400
H685        H  0.84856099  0.45956600  0.89214925     0.18200
O686        O  0.95313153  0.36122160  0.92605869    -0.64100
H687        H  0.90491029  0.31744670  0.87561193     0.16600
C688        C  0.84954461  0.30655774  0.80037183     0.28900
C689        C  0.82556355  0.27631101  0.77931875    -0.25000
C690        C  0.78030920  0.26910840  0.78889166    -0.24300
C691        C  0.75890925  0.29632167  0.81790452     0.40300
C692        C  0.78308068  0.32634590  0.83890469    -0.26700
O693        O  0.89349565  0.31196956  0.79016002    -0.58600
H694        H  0.84272619  0.25936817  0.75472892     0.16000
O695        O  0.71416142  0.29344345  0.82636356    -0.60000
H696        H  0.76617008  0.34525088  0.86224322     0.14400
H697        H  0.97835644  0.36625561  0.90647929     0.46300
H698        H  0.89317403  0.33338262  0.76762905     0.41700
H699        H  0.71200829  0.28481470  0.85670288     0.45100
H700        H  0.80996457  0.42046043  0.81078347     0.36600
C701        C  0.63761823  0.61962778  0.66520054    -0.27700
C702        C  0.64272959  0.66043894  0.65311876     0.01900
C703        C  0.62047840  0.67518155  0.61606412     0.30000
C704        C  0.59571003  0.64864214  0.59071709    -0.19400
C705        C  0.59204170  0.60735548  0.60208251    -0.28800
C706        C  0.61194750  0.59345076  0.64076888     0.44100
C707        C  0.67329471  0.68641729  0.67815451     0.05300
O708        O  0.62351191  0.71523904  0.60375535    -0.57400
H709        H  0.58019546  0.66024150  0.56164787     0.18200
O710        O  0.60832873  0.55379070  0.65433879    -0.64100
H711        H  0.65477519  0.60740646  0.69313790     0.16600
C712        C  0.67268320  0.68669299  0.72310366     0.28900
C713        C  0.70354387  0.70969294  0.74572156    -0.25000
C714        C  0.73310607  0.73618364  0.72466997    -0.24300
C715        C  0.73532352  0.73366680  0.67923965     0.40300
C716        C  0.70571334  0.70893527  0.65688937    -0.26700
O717        O  0.64133773  0.66538167  0.74539552    -0.58600
H718        H  0.70214082  0.70918502  0.78030115     0.16000
O719        O  0.76854985  0.75192725  0.65638112    -0.60000
H720        H  0.70880100  0.70677901  0.62249172     0.14400
H721        H  0.58277487  0.55395787  0.67436175     0.46300
H722        H  0.61574331  0.68466661  0.74873586     0.41700
H723        H  0.75330954  0.77034978  0.63544372     0.45100
H724        H  0.60261092  0.73039022  0.62259453     0.36600
C725        C  0.34565354  0.30801094  0.69975235    -0.27700
C726        C  0.32258950  0.33344460  0.67072042     0.01900
C727        C  0.27602188  0.32934889  0.66719848     0.30000
C728        C  0.25427037  0.29842019  0.68974124    -0.19400
C729        C  0.27756573  0.27052433  0.71686916    -0.28800
C730        C  0.32370933  0.27840691  0.72411518     0.44100
C731        C  0.34757284  0.36362342  0.64421956     0.05300
O732        O  0.25115114  0.35560939  0.64202194    -0.57400
H733        H  0.21863432  0.29573310  0.68539292     0.18200
O734        O  0.34698245  0.26079082  0.75752134    -0.64100
H735        H  0.38124175  0.31131384  0.70424129     0.16600
C736        C  0.38156043  0.38782093  0.66194346     0.28900
C737        C  0.40762249  0.41257967  0.63550237    -0.25000
C738        C  0.39916009  0.41527428  0.59148152    -0.24300
C739        C  0.36401137  0.39273063  0.57397482     0.40300
C740        C  0.33913268  0.36674122  0.60005491    -0.26700
O741        O  0.38968851  0.38757610  0.70509969    -0.58600
H742        H  0.43426667  0.43003842  0.64948430     0.16000
O743        O  0.35571250  0.39376915  0.53082632    -0.60000
H744        H  0.31396936  0.34806693  0.58535397     0.14400
H745        H  0.37367943  0.24730215  0.74487615     0.46300
H746        H  0.36698808  0.40647985  0.71726989     0.41700
H747        H  0.33012298  0.41306405  0.52706711     0.45100
H748        H  0.24676185  0.38045181  0.65950647     0.36600
C749        C  0.67446039  0.40201230  0.39500769    -0.27700
C750        C  0.65110006  0.37742382  0.36612284     0.01900
C751        C  0.60401721  0.37847799  0.36726391     0.30000
C752        C  0.58133687  0.40257556  0.39738958    -0.19400
C753        C  0.60468155  0.42642075  0.42691333    -0.28800
C754        C  0.65177005  0.42651210  0.42483296     0.44100
C755        C  0.67585971  0.35064536  0.33521914     0.05300
O756        O  0.57967436  0.35592796  0.33907551    -0.57400
H757        H  0.54522657  0.40185429  0.39817715     0.18200
O758        O  0.67614026  0.45010058  0.45205299    -0.64100
H759        H  0.71059723  0.40174731  0.39500696     0.16600
C760        C  0.71067388  0.36570083  0.31001004     0.28900
C761        C  0.73369476  0.33999102  0.28173205    -0.25000
C762        C  0.72118935  0.29896382  0.27487397    -0.24300
C763        C  0.68718621  0.28374909  0.30189158     0.40300
C764        C  0.66522273  0.30931356  0.33136418    -0.26700
O765        O  0.72264367  0.40577826  0.31255865    -0.58600
H766        H  0.76190102  0.35306709  0.26576169     0.16000
O767        O  0.67629605  0.24332605  0.30095122    -0.60000
H768        H  0.63985550  0.29647209  0.35170427     0.14400
H769        H  0.67535581  0.47779075  0.43909702     0.46300
H770        H  0.70445068  0.42018195  0.29041591     0.46500
H771        H  0.64473456  0.24256839  0.29141591     0.45100
H772        H  0.57626392  0.37338771  0.31323753     0.36600
C773        C  0.39277091  0.67543195  0.39703750    -0.27700
C774        C  0.37449352  0.65496386  0.36207878     0.01900
C775        C  0.38480099  0.61346567  0.35619892     0.30000
C776        C  0.41276681  0.59278812  0.38535720    -0.19400
C777        C  0.43060441  0.61288834  0.42103510    -0.28800
C778        C  0.42028111  0.65466087  0.42666828     0.44100
C779        C  0.34428076  0.67707405  0.33210334     0.05300
O780        O  0.36805851  0.59300504  0.32174985    -0.57400
H781        H  0.41996707  0.56070471  0.38027866     0.18200
O782        O  0.43557932  0.67518664  0.46168017    -0.64100
H783        H  0.38478146  0.70740500  0.40189458     0.16600
C784        C  0.29795646  0.67223676  0.33390597     0.28900
C785        C  0.26996135  0.69399948  0.30560850    -0.25000
C786        C  0.28689201  0.72268575  0.27608403    -0.24300
C787        C  0.33430909  0.72357489  0.27169023     0.40300
C788        C  0.36208865  0.70224926  0.30063651    -0.26700
O789        O  0.27964582  0.64655433  0.36352552    -0.58600
H790        H  0.23435336  0.69000205  0.30826316     0.16000
O791        O  0.35442087  0.74329991  0.23839207    -0.60000
H792        H  0.39797391  0.70444774  0.29763277     0.14400
H793        H  0.41213493  0.67201841  0.48366439     0.46300
H794        H  0.27530240  0.66338153  0.38943147     0.41700
H795        H  0.36434256  0.72155946  0.21854368     0.45100
H796        H  0.33939733  0.58172512  0.33163661     0.36600
C797        C  0.60848883  0.61632283  0.36179035    -0.27700
C798        C  0.65349357  0.62496215  0.36890502     0.01900
C799        C  0.67547222  0.60756766  0.40458119     0.30000
C800        C  0.65224061  0.58240056  0.43298766    -0.19400
C801        C  0.60680099  0.57389531  0.42640193    -0.28800
C802        C  0.58521506  0.59089484  0.38987650     0.44100
C803        C  0.67748131  0.65173275  0.33861917     0.05300
O804        O  0.71922535  0.61634153  0.41284865    -0.57400
H805        H  0.66971198  0.57025836  0.46078677     0.18200
O806        O  0.54096983  0.58407950  0.38188783    -0.64100
H807        H  0.59126655  0.62945554  0.33431477     0.16600
C808        C  0.70584068  0.63500520  0.30762054     0.28900
C809        C  0.72901486  0.66045521  0.27960639    -0.25000
C810        C  0.72415715  0.70351446  0.28099204    -0.24300
C811        C  0.69559310  0.71990892  0.31314149     0.40300
C812        C  0.67265059  0.69413826  0.34119948    -0.26700
O813        O  0.71079766  0.59350898  0.30419068    -0.58600
H814        H  0.75177874  0.64562225  0.25786292     0.16000
O815        O  0.69021629  0.76129740  0.31762743    -0.60000
H816        H  0.65115527  0.70741005  0.36533113     0.14400
H817        H  0.54061876  0.55980044  0.36319024     0.46300
H818        H  0.73977921  0.58672651  0.31816250     0.41700
H819        H  0.65949919  0.76784004  0.30749571     0.45100
H820        H  0.73682973  0.59429394  0.39897547     0.36600
C821        C  0.70549198  0.30947483  0.67899243    -0.27700
C822        C  0.65989900  0.31078518  0.68783480     0.01900
C823        C  0.64367492  0.28875259  0.72278798     0.30000
C824        C  0.67286059  0.26451283  0.74766263    -0.19400
C825        C  0.71906475  0.26146814  0.73836128    -0.28800
C826        C  0.73501428  0.28581869  0.70398631     0.44100
C827        C  0.63016838  0.33669683  0.66096312     0.05300
O828        O  0.59916191  0.29046443  0.73268595    -0.57400
H829        H  0.65886262  0.24955129  0.77519982     0.18200
O830        O  0.77976373  0.28701346  0.69489769    -0.64100
H831        H  0.71844072  0.32738355  0.65274856     0.16600
C832        C  0.61459371  0.37469273  0.67567571     0.28900
C833        C  0.59141800  0.40116949  0.64784314    -0.25000
C834        C  0.58344378  0.39032806  0.60503373    -0.24300
C835        C  0.59695697  0.35122223  0.59116569     0.40300
C836        C  0.62068682  0.32498819  0.61893984    -0.26700
O837        O  0.62335500  0.38682648  0.71668987    -0.58600
H838        H  0.58091844  0.43084596  0.65947369     0.16000
O839        O  0.58986895  0.33932820  0.54982319    -0.60000
H840        H  0.63276130  0.29578838  0.60733297     0.14400
H841        H  0.78315591  0.27529397  0.66593504     0.46300
H842        H  0.65283977  0.40000639  0.71537491     0.41700
H843        H  0.56113443  0.32480201  0.55036630     0.45100
H844        H  0.59646031  0.31120737  0.75547966     0.36600
C845        C  0.39880875  0.66224194  0.63007034    -0.27700
C846        C  0.35946357  0.64868305  0.64914565     0.01900
C847        C  0.34570172  0.60842469  0.64145906     0.30000
C848        C  0.37032641  0.58304027  0.61403192    -0.19400
C849        C  0.40961276  0.59674592  0.59492063    -0.28800
C850        C  0.42408743  0.63660088  0.60370113     0.44100
C851        C  0.33217122  0.67745419  0.67525326     0.05300
O852        O  0.30817784  0.59357505  0.66052828    -0.57400
H853        H  0.35886076  0.55248327  0.60792263     0.18200
O854        O  0.46147320  0.65175603  0.58456630    -0.64100
H855        H  0.40950673  0.69326723  0.63475411     0.16600
C856        C  0.35134472  0.70042076  0.70814986     0.28900
C857        C  0.32542420  0.72903987  0.73060862    -0.25000
C858        C  0.27972866  0.73599592  0.72089217    -0.24300
C859        C  0.26030750  0.71034943  0.68962323     0.40300
C860        C  0.28658592  0.68265028  0.66652596    -0.26700
O861        O  0.39496863  0.69357050  0.72009018    -0.58600
H862        H  0.34143913  0.74436251  0.75677031     0.16000
O863        O  0.21560509  0.71328582  0.68019852    -0.60000
H864        H  0.27110109  0.66527422  0.64134357     0.14400
H865        H  0.48557700  0.64862820  0.60623007     0.46300
H866        H  0.41110451  0.71826356  0.71096330     0.41700
H867        H  0.20223810  0.68883761  0.69344991     0.45100
H868        H  0.31753894  0.58615062  0.69004694     0.36600
C869        C  0.34914960  0.33442124  0.28973744    -0.27700
C870        C  0.34388347  0.33745805  0.33392813     0.01900
C871        C  0.30649187  0.32045979  0.35335808     0.30000
C872        C  0.27582380  0.29918327  0.32891404    -0.19400
C873        C  0.28283727  0.29180907  0.28488981    -0.28800
C874        C  0.31925066  0.31186451  0.26521410     0.44100
C875        C  0.37733489  0.35835203  0.36005879     0.05300
O876        O  0.29884253  0.32579305  0.39619949    -0.57400
H877        H  0.24617187  0.28946913  0.34516673     0.18200
O878        O  0.32583172  0.30941843  0.22190419    -0.64100
H879        H  0.37723625  0.34865296  0.27432902     0.16600
C880        C  0.40111530  0.33685029  0.39207992     0.28900
C881        C  0.42789765  0.35779280  0.42079110    -0.25000
C882        C  0.43177429  0.40029993  0.41784803    -0.24300
C883        C  0.41074070  0.42133680  0.38335248     0.40300
C884        C  0.38349219  0.40028022  0.35495601    -0.26700
O885        O  0.39695485  0.29548378  0.39657262    -0.58600
H886        H  0.44417496  0.34081303  0.44644545     0.16000
O887        O  0.41484239  0.46264759  0.37805210    -0.60000
H888        H  0.36576217  0.41696398  0.32994035     0.14400
H889        H  0.35429046  0.29399014  0.21817782     0.46300
H890        H  0.41811600  0.28344874  0.37569083     0.41700
H891        H  0.44168419  0.46597463  0.36003776     0.45100
H892        H  0.30492565  0.29877366  0.40963714     0.36600
loop_ 
_geom_bond_atom_site_label_1 
_geom_bond_atom_site_label_2 
_geom_bond_distance 
_geom_bond_site_symmetry_2 
_ccdc_geom_bond_type 
O1            C9   1.274       .  A
O1          Co21   1.895       .  S
O2           C10   1.258       .  A
O2          Co22   1.980       .  S
O3           C11   1.294       .  A
O3          Co23   2.067       .  S
O4           C12   1.266       .  A
O4          Co24   2.018       .  S
O5           C11   1.271       .  A
O5          Co22   1.905       .  S
O6           C12   1.260       .  A
O6          Co21   1.996       .  S
O7           C10   1.270       .  A
O7          Co24   2.030       .  S
O8            C9   1.296       .  A
O8          Co23   2.064       .  S
C9          C882   1.479       .  S
C10         C801   1.496       .  S
C11         C777   1.485       .  S
C12         C753   1.494       .  S
O13          C26   1.272       .  A
O13         Co21   2.016       .  S
O14          C27   1.243       .  A
O14         Co22   1.949       .  S
O15          C28   1.252       .  A
O15         Co23   2.002       .  S
O16          C29   1.258       .  A
O16         Co24   1.958       .  S
O17          C29   1.273       .  A
O17         Co22   2.023       .  S
O18          C28   1.247       .  A
O18         Co21   1.981       .  S
O19          C26   1.262       .  A
O19         Co24   1.972       .  S
O20          C27   1.258       .  A
O20         Co23   2.014       .  S
Co21         O25   1.927       .  S
Co22         O25   1.941       .  S
Co23         O25   2.245       .  S
Co24         O25   2.082       .  S
C26         C834   1.483       .  S
C27         C849   1.481       .  S
C28         C738   1.481       .  S
C29         C705   1.484       .  S
O30          C38   1.295       .  A
O30         Co50   2.097   1_656  S
O31          C39   1.273       .  A
O31         Co51   2.022   1_556  S
O32          C40   1.272       .  A
O32         Co52   1.977       .  S
O33          C41   1.259       .  A
O33         Co53   1.979       .  S
O34          C40   1.280       .  A
O34         Co51   2.027   1_656  S
O35          C41   1.265       .  A
O35         Co50   2.020   1_556  S
O36          C39   1.262       .  A
O36         Co53   1.957       .  S
O37          C38   1.268       .  A
O37         Co52   1.904       .  S
C38         C681   1.486       .  S
C39         C585   1.483       .  S
C40         C609   1.494       .  S
C41         C633   1.494       .  S
O42          C55   1.267       .  A
O42         Co50   1.967       .  S
O43          C56   1.257       .  A
O43         Co51   1.970   1_655  S
O44          C57   1.297       .  A
O44         Co52   2.112   1_554  S
O45          C58   1.275       .  A
O45         Co53   2.037   1_554  S
O46          C58   1.261       .  A
O46         Co51   1.968       .  S
O47          C57   1.265       .  A
O47         Co50   1.887   1_655  S
O48          C55   1.277       .  A
O48         Co53   2.025   1_554  S
O49          C56   1.265       .  A
O49         Co52   2.021   1_554  S
Co50         O54   2.001   1_554  S
Co51         O54   2.021   1_554  S
Co52         O54   2.015   1_655  S
Co53         O54   2.036       .  S
C55         C522   1.487       .  S
C56         C570   1.480       .  S
C57         C666   1.475       .  S
C58         C537   1.483       .  S
C59         C474   1.564       .  S
C59         C489   1.560       .  S
C59         C690   1.558       .  S
C59         C825   1.566       .  S
O60          C68   1.255       .  A
O60         Co80   1.967   1_556  S
O61          C69   1.268       .  A
O61         Co81   1.966       .  S
O62          C70   1.293       .  A
O62         Co82   2.089       .  S
O63          C71   1.275       .  A
O63         Co83   2.031       .  S
O64          C70   1.267       .  A
O64         Co81   1.901   1_556  S
O65          C71   1.261       .  A
O65         Co80   1.961       .  S
O66          C69   1.281       .  A
O66         Co83   2.036   1_565  S
O67          C68   1.262       .  A
O67         Co82   2.018   1_545  S
C68         C393   1.477       .  S
C69         C345   1.481       .  S
C70         C450   1.485       .  S
C71         C321   1.491       .  S
O72          C85   1.272       .  A
O72         Co80   2.021       .  S
O73          C86   1.294       .  A
O73         Co81   2.099   1_556  S
O74          C87   1.264       .  A
O74         Co82   1.957   1_545  S
O75          C88   1.257       .  A
O75         Co83   1.975   1_565  S
O76          C88   1.265       .  A
O76         Co81   2.019       .  S
O77          C87   1.279       .  A
O77         Co80   2.029   1_556  S
O78          C85   1.264       .  A
O78         Co83   1.975       .  S
O79          C86   1.264       .  A
O79         Co82   1.899       .  S
Co80         O84   2.033       .  S
Co81         O84   2.023   1_565  S
Co82         O84   2.015   1_566  S
Co83         O84   2.031       .  S
C85         C297   1.495       .  S
C86         C378   1.485       .  S
C87         C498   1.476       .  S
C88         C417   1.494       .  S
C89         C282   1.567       .  S
C89         C441   1.564       .  S
C89         C594   1.557       .  S
C89         C858   1.567       .  S
O90          C98   1.272       .  A
O90        Co110   1.861       .  S
O91          C99   1.265       .  A
O91        Co111   1.954   1_455  S
O92         C100   1.273       .  A
O92        Co112   1.922       .  S
O93         C101   1.272       .  A
O93        Co113   2.018       .  S
O94         C100   1.293       .  A
O94        Co111   2.074       .  S
O95         C101   1.267       .  A
O95        Co110   1.985   1_455  S
O96          C99   1.274       .  A
O96        Co113   2.017   1_565  S
O97          C98   1.308       .  A
O97        Co112   2.134   1_545  S
C98         C465   1.487       .  S
C99         C273   1.491       .  S
C100        C177   1.481       .  S
C101        C129   1.498       .  S
O102        C115   1.272       .  A
O102       Co110   2.018   1_455  S
O103        C116   1.283       .  A
O103       Co111   1.930       .  S
O104        C117   1.261       .  A
O104       Co112   1.979   1_545  S
O105        C118   1.256       .  A
O105       Co113   1.962   1_565  S
O106        C118   1.266       .  A
O106       Co111   2.024   1_455  S
O107        C117   1.264       .  A
O107       Co110   2.002       .  S
O108        C115   1.262       .  A
O108       Co113   1.964       .  S
O109        C116   1.300       .  A
O109       Co112   2.080       .  S
Co110       O114   1.915   1_655  S
Co111       O114   2.029   1_665  S
Co112       O114   2.050   1_665  S
Co113       O114   2.034       .  S
C115        C153   1.480       .  S
C116        C225   1.495       .  S
C117        C258   1.488       .  S
C118        C201   1.492       .  S
C119        C234   1.578       .  S
C119        C426   1.575       .  S
C119        C561   1.577       .  S
C119        C810   1.566       .  S
C120        C162   1.562       .  S
C120        C330   1.572       .  S
C120        C513   1.559       .  S
C120        C873   1.564       .  S
C121        C249   1.573       .  S
C121        C306   1.566       .  S
C121        C657   1.569       .  S
C121        C762   1.576       .  S
C122        C210   1.570       .  S
C122        C354   1.566       .  S
C122        C546   1.571       .  S
C122        C786   1.565       .  S
C123        C138   1.567       .  S
C123        C402   1.566       .  S
C123        C642   1.572       .  S
C123        C729   1.571       .  S
C124        C186   1.563       .  S
C124        C369   1.571       .  S
C124        C618   1.570       .  S
C124        C714   1.558       .  S
C125        C126   1.402       .  A
C125        C130   1.404       .  A
C125        H135   1.084       .  S
C126        C131   1.495       .  S
C126        C127   1.411       .  A
C127        C128   1.409       .  A
C127        O132   1.372       .  S
C128        C129   1.409       .  A
C128        H133   1.084       .  S
C129        C130   1.414       .  A
C130        O134   1.371       .  S
C131        C136   1.403       .  A
C131        C140   1.404       .  A
O132        H148   0.992       .  S
O134        H145   0.991       .  S
C136        C137   1.402       .  A
C136        O141   1.373       .  S
C137        C138   1.419       .  A
C137        H142   1.083       .  S
C138        C139   1.426       .  A
C139        C140   1.409       .  A
C139        O143   1.372       .  S
C140        H144   1.084       .  S
O141        H146   0.992       .  S
O143        H147   0.992       .  S
C149        C150   1.396       .  A
C149        C154   1.395       .  A
C149        H159   1.084       .  S
C150        C155   1.473       .  S
C150        C151   1.407       .  A
C151        C152   1.404       .  A
C151        O156   1.372       .  S
C152        C153   1.406       .  A
C152        H157   1.083       .  S
C153        C154   1.414       .  A
C154        O158   1.374       .  S
C155        C160   1.401       .  A
C155        C164   1.396       .  A
O156        H172   0.992       .  S
O158        H169   0.992       .  S
C160        C161   1.395       .  A
C160        O165   1.372       .  S
C161        C162   1.416       .  A
C161        H166   1.083       .  S
C162        C163   1.429       .  A
C163        C164   1.402       .  A
C163        O167   1.373       .  S
C164        H168   1.084       .  S
O165        H170   0.992       .  S
O167        H171   0.992       .  S
C173        C174   1.406       .  A
C173        C178   1.401       .  A
C173        H183   1.084       .  S
C174        C179   1.492       .  S
C174        C175   1.410       .  A
C175        C176   1.404       .  A
C175        O180   1.371       .  S
C176        C177   1.405       .  A
C176        H181   1.084       .  S
C177        C178   1.409       .  A
C178        O182   1.372       .  S
C179        C184   1.403       .  A
C179        C188   1.405       .  A
O180        H196   0.992       .  S
O182        H193   0.991       .  S
C184        C185   1.394       .  A
C184        O189   1.372       .  S
C185        C186   1.418       .  A
C185        H190   1.080       .  S
C186        C187   1.424       .  A
C187        C188   1.408       .  A
C187        O191   1.369       .  S
C188        H192   1.083       .  S
O189        H194   0.992       .  S
O191        H195   0.991       .  S
C197        C198   1.404       .  A
C197        C202   1.403       .  A
C197        H207   1.083       .  S
C198        C203   1.493       .  S
C198        C199   1.410       .  A
C199        C200   1.404       .  A
C199        O204   1.372       .  S
C200        C201   1.409       .  A
C200        H205   1.083       .  S
C201        C202   1.413       .  A
C202        O206   1.372       .  S
C203        C208   1.404       .  A
C203        C212   1.400       .  A
O204        H220   0.991       .  S
O206        H217   0.992       .  S
C208        C209   1.403       .  A
C208        O213   1.372       .  S
C209        C210   1.419       .  A
C209        H214   1.083       .  S
C210        C211   1.429       .  A
C211        C212   1.406       .  A
C211        O215   1.372       .  S
C212        H216   1.084       .  S
O213        H218   0.992       .  S
O215        H219   0.992       .  S
C221        C222   1.406       .  A
C221        C226   1.404       .  A
C221        H231   1.084       .  S
C222        C227   1.502       .  S
C222        C223   1.413       .  A
C223        C224   1.410       .  A
C223        O228   1.371       .  S
C224        C225   1.407       .  A
C224        H229   1.083       .  S
C225        C226   1.413       .  A
C226        O230   1.372       .  S
C227        C232   1.408       .  A
C227        C236   1.403       .  A
O228        H244   0.992       .  S
O230        H241   0.992       .  S
C232        C233   1.403       .  A
C232        O237   1.372       .  S
C233        C234   1.418       .  A
C233        H238   1.078       .  S
C234        C235   1.427       .  A
C235        C236   1.410       .  A
C235        O239   1.372       .  S
C236        H240   1.083       .  S
O237        H242   0.992       .  S
O239        H243   0.992       .  S
C245        C246   1.398       .  A
C245        C250   1.403       .  A
C245        H255   1.084       .  S
C246        C251   1.494       .  S
C246        C247   1.407       .  A
C247        C248   1.402       .  A
C247        O252   1.371       .  S
C248        C249   1.415       .  A
C248        H253   1.083       .  S
C249        C250   1.433       .  A
C250        O254   1.371       .  S
C251        C256   1.413       .  A
C251        C260   1.404       .  A
O252        H268   0.992       .  S
O254        H265   0.992       .  S
C256        C257   1.405       .  A
C256        O261   1.372       .  S
C257        C258   1.406       .  A
C257        H262   1.083       .  S
C258        C259   1.411       .  A
C259        C260   1.401       .  A
C259        O263   1.370       .  S
C260        H264   1.083       .  S
O261        H266   0.992       .  S
O263        H267   0.991       .  S
C269        C270   1.405       .  A
C269        C274   1.408       .  A
C269        H279   1.083       .  S
C270        C275   1.489       .  S
C270        C271   1.408       .  A
C271        C272   1.396       .  A
C271        O276   1.372       .  S
C272        C273   1.407       .  A
C272        H277   1.083       .  S
C273        C274   1.415       .  A
C274        O278   1.374       .  S
C275        C280   1.404       .  A
C275        C284   1.402       .  A
O276        H292   0.992       .  S
O278        H289   0.991       .  S
C280        C281   1.400       .  A
C280        O285   1.372       .  S
C281        C282   1.420       .  A
C281        H286   1.080       .  S
C282        C283   1.421       .  A
C283        C284   1.402       .  A
C283        O287   1.370       .  S
C284        H288   1.084       .  S
O285        H290   0.992       .  S
O287        H291   0.992       .  S
C293        C294   1.406       .  A
C293        C298   1.400       .  A
C293        H303   1.084       .  S
C294        C299   1.497       .  S
C294        C295   1.410       .  A
C295        C296   1.410       .  A
C295        O300   1.373       .  S
C296        C297   1.410       .  A
C296        H301   1.083       .  S
C297        C298   1.413       .  A
C298        O302   1.372       .  S
C299        C304   1.411       .  A
C299        C308   1.400       .  A
O300        H316   0.992       .  S
O302        H313   0.992       .  S
C304        C305   1.409       .  A
C304        O309   1.371       .  S
C305        C306   1.415       .  A
C305        H310   1.079       .  S
C306        C307   1.425       .  A
C307        C308   1.400       .  A
C307        O311   1.371       .  S
C308        H312   1.084       .  S
O309        H314   0.992       .  S
O311        H315   0.992       .  S
C317        C318   1.402       .  A
C317        C322   1.397       .  A
C317        H327   1.084       .  S
C318        C323   1.494       .  S
C318        C319   1.413       .  A
C319        C320   1.410       .  A
C319        O324   1.373       .  S
C320        C321   1.407       .  A
C320        H325   1.083       .  S
C321        C322   1.414       .  A
C322        O326   1.372       .  S
C323        C328   1.405       .  A
C323        C332   1.403       .  A
O324        H340   0.992       .  S
O326        H337   0.992       .  S
C328        C329   1.403       .  A
C328        O333   1.372       .  S
C329        C330   1.420       .  A
C329        H334   1.079       .  S
C330        C331   1.423       .  A
C331        C332   1.406       .  A
C331        O335   1.372       .  S
C332        H336   1.084       .  S
O333        H338   0.992       .  S
O335        H339   0.992       .  S
C341        C342   1.407       .  A
C341        C346   1.401       .  A
C341        H351   1.083       .  S
C342        C347   1.500       .  S
C342        C343   1.416       .  A
C343        C344   1.405       .  A
C343        O348   1.371       .  S
C344        C345   1.402       .  A
C344        H349   1.084       .  S
C345        C346   1.410       .  A
C346        O350   1.372       .  S
C347        C352   1.410       .  A
C347        C356   1.403       .  A
O348        H364   0.991       .  S
O350        H361   0.992       .  S
C352        C353   1.402       .  A
C352        O357   1.371       .  S
C353        C354   1.415       .  A
C353        H358   1.080       .  S
C354        C355   1.422       .  A
C355        C356   1.403       .  A
C355        O359   1.370       .  S
C356        H360   1.082       .  S
O357        H362   0.992       .  S
O359        H363   0.992       .  S
C365        C366   1.394       .  A
C365        C370   1.398       .  A
C365        H375   1.084       .  S
C366        C371   1.477       .  S
C366        C367   1.401       .  A
C367        C368   1.402       .  A
C367        O372   1.371       .  S
C368        C369   1.420       .  A
C368        H373   1.083       .  S
C369        C370   1.430       .  A
C370        O374   1.373       .  S
C371        C376   1.405       .  A
C371        C380   1.402       .  A
O372        H388   0.992       .  S
O374        H385   0.993       .  S
C376        C377   1.398       .  A
C376        O381   1.372       .  S
C377        C378   1.406       .  A
C377        H382   1.084       .  S
C378        C379   1.414       .  A
C379        C380   1.404       .  A
C379        O383   1.372       .  S
C380        H384   1.084       .  S
O381        H386   0.992       .  S
O383        H387   0.992       .  S
C389        C390   1.405       .  A
C389        C394   1.397       .  A
C389        H399   1.084       .  S
C390        C395   1.495       .  S
C390        C391   1.416       .  A
C391        C392   1.408       .  A
C391        O396   1.371       .  S
C392        C393   1.402       .  A
C392        H397   1.084       .  S
C393        C394   1.408       .  A
C394        O398   1.372       .  S
C395        C400   1.409       .  A
C395        C404   1.402       .  A
O396        H412   0.992       .  S
O398        H409   0.992       .  S
C400        C401   1.399       .  A
C400        O405   1.372       .  S
C401        C402   1.415       .  A
C401        H406   1.080       .  S
C402        C403   1.424       .  A
C403        C404   1.404       .  A
C403        O407   1.371       .  S
C404        H408   1.083       .  S
O405        H410   0.992       .  S
O407        H411   0.992       .  S
C413        C414   1.403       .  A
C413        C418   1.402       .  A
C413        H423   1.083       .  S
C414        C419   1.499       .  S
C414        C415   1.414       .  A
C415        C416   1.407       .  A
C415        O420   1.371       .  S
C416        C417   1.406       .  A
C416        H421   1.083       .  S
C417        C418   1.416       .  A
C418        O422   1.372       .  S
C419        C424   1.409       .  A
C419        C428   1.400       .  A
O420        H436   0.992       .  S
O422        H433   0.992       .  S
C424        C425   1.405       .  A
C424        O429   1.372       .  S
C425        C426   1.417       .  A
C425        H430   1.083       .  S
C426        C427   1.430       .  A
C427        C428   1.404       .  A
C427        O431   1.371       .  S
C428        H432   1.083       .  S
O429        H434   0.992       .  S
O431        H435   0.992       .  S
C437        C438   1.393       .  A
C437        C442   1.399       .  A
C437        H447   1.084       .  S
C438        C443   1.475       .  S
C438        C439   1.402       .  A
C439        C440   1.401       .  A
C439        O444   1.371       .  S
C440        C441   1.416       .  A
C440        H445   1.083       .  S
C441        C442   1.432       .  A
C442        O446   1.373       .  S
C443        C448   1.405       .  A
C443        C452   1.400       .  A
O444        H460   0.991       .  S
O446        H457   0.992       .  S
C448        C449   1.402       .  A
C448        O453   1.372       .  S
C449        C450   1.409       .  A
C449        H454   1.084       .  S
C450        C451   1.413       .  A
C451        C452   1.398       .  A
C451        O455   1.371       .  S
C452        H456   1.084       .  S
O453        H458   0.992       .  S
O455        H459   0.992       .  S
C461        C462   1.402       .  A
C461        C466   1.403       .  A
C461        H471   1.084       .  S
C462        C467   1.479       .  S
C462        C463   1.405       .  A
C463        C464   1.399       .  A
C463        O468   1.372       .  S
C464        C465   1.409       .  A
C464        H469   1.083       .  S
C465        C466   1.412       .  A
C466        O470   1.371       .  S
C467        C472   1.401       .  A
C467        C476   1.399       .  A
O468        H484   0.992       .  S
O470        H481   0.991       .  S
C472        C473   1.394       .  A
C472        O477   1.372       .  S
C473        C474   1.417       .  A
C473        H478   1.080       .  S
C474        C475   1.424       .  A
C475        C476   1.407       .  A
C475        O479   1.372       .  S
C476        H480   1.084       .  S
O477        H482   0.992       .  S
O479        H483   0.992       .  S
C485        C486   1.395       .  A
C485        C490   1.400       .  A
C485        H495   1.084       .  S
C486        C491   1.476       .  S
C486        C487   1.402       .  A
C487        C488   1.399       .  A
C487        O492   1.372       .  S
C488        C489   1.415       .  A
C488        H493   1.083       .  S
C489        C490   1.428       .  A
C490        O494   1.373       .  S
C491        C496   1.405       .  A
C491        C500   1.403       .  A
O492        H508   0.991       .  S
O494        H505   0.992       .  S
C496        C497   1.397       .  A
C496        O501   1.372       .  S
C497        C498   1.407       .  A
C497        H502   1.084       .  S
C498        C499   1.408       .  A
C499        C500   1.400       .  A
C499        O503   1.372       .  S
C500        H504   1.084       .  S
O501        H506   0.992       .  S
O503        H507   0.992       .  S
C509        C510   1.397       .  A
C509        C514   1.398       .  A
C509        H519   1.084       .  S
C510        C515   1.487       .  S
C510        C511   1.407       .  A
C511        C512   1.404       .  A
C511        O516   1.372       .  S
C512        C513   1.414       .  A
C512        H517   1.079       .  S
C513        C514   1.426       .  A
C514        O518   1.373       .  S
C515        C520   1.409       .  A
C515        C524   1.404       .  A
O516        H532   0.992       .  S
O518        H529   0.991       .  S
C520        C521   1.399       .  A
C520        O525   1.372       .  S
C521        C522   1.406       .  A
C521        H526   1.084       .  S
C522        C523   1.414       .  A
C523        C524   1.404       .  A
C523        O527   1.372       .  S
C524        H528   1.083       .  S
O525        H530   0.992       .  S
O527        H531   0.992       .  S
C533        C534   1.407       .  A
C533        C538   1.405       .  A
C533        H543   1.083       .  S
C534        C539   1.495       .  S
C534        C535   1.412       .  A
C535        C536   1.403       .  A
C535        O540   1.372       .  S
C536        C537   1.404       .  A
C536        H541   1.084       .  S
C537        C538   1.410       .  A
C538        O542   1.371       .  S
C539        C544   1.405       .  A
C539        C548   1.402       .  A
O540        H556   0.992       .  S
O542        H553   0.991       .  S
C544        C545   1.405       .  A
C544        O549   1.372       .  S
C545        C546   1.418       .  A
C545        H550   1.081       .  S
C546        C547   1.426       .  A
C547        C548   1.404       .  A
C547        O551   1.371       .  S
C548        H552   1.083       .  S
O549        H554   0.992       .  S
O551        H555   0.992       .  S
C557        C558   1.406       .  A
C557        C562   1.404       .  A
C557        H567   1.082       .  S
C558        C563   1.507       .  S
C558        C559   1.409       .  A
C559        C560   1.404       .  A
C559        O564   1.372       .  S
C560        C561   1.420       .  A
C560        H565   1.081       .  S
C561        C562   1.426       .  A
C562        O566   1.368       .  S
C563        C568   1.415       .  A
C563        C572   1.414       .  A
O564        H580   0.992       .  S
O566        H577   0.992       .  S
C568        C569   1.400       .  A
C568        O573   1.371       .  S
C569        C570   1.402       .  A
C569        H574   1.084       .  S
C570        C571   1.405       .  A
C571        C572   1.410       .  A
C571        O575   1.371       .  S
C572        H576   1.082       .  S
O573        H578   0.992       .  S
O575        H579   0.991       .  S
C581        C582   1.401       .  A
C581        C586   1.400       .  A
C581        H591   1.084       .  S
C582        C587   1.471       .  S
C582        C583   1.402       .  A
C583        C584   1.397       .  A
C583        O588   1.371       .  S
C584        C585   1.408       .  A
C584        H589   1.083       .  S
C585        C586   1.414       .  A
C586        O590   1.371       .  S
C587        C592   1.402       .  A
C587        C596   1.392       .  A
O588        H604   0.991       .  S
O590        H601   0.992       .  S
C592        C593   1.403       .  A
C592        O597   1.371       .  S
C593        C594   1.417       .  A
C593        H598   1.079       .  S
C594        C595   1.427       .  A
C595        C596   1.394       .  A
C595        O599   1.373       .  S
C596        H600   1.084       .  S
O597        H602   0.992       .  S
O599        H603   0.992       .  S
C605        C606   1.402       .  A
C605        C610   1.400       .  A
C605        H615   1.084       .  S
C606        C611   1.487       .  S
C606        C607   1.408       .  A
C607        C608   1.406       .  A
C607        O612   1.371       .  S
C608        C609   1.410       .  A
C608        H613   1.083       .  S
C609        C610   1.415       .  A
C610        O614   1.372       .  S
C611        C616   1.402       .  A
C611        C620   1.400       .  A
O612        H628   0.992       .  S
O614        H625   0.992       .  S
C616        C617   1.397       .  A
C616        O621   1.372       .  S
C617        C618   1.418       .  A
C617        H622   1.079       .  S
C618        C619   1.426       .  A
C619        C620   1.409       .  A
C619        O623   1.371       .  S
C620        H624   1.083       .  S
O621        H626   0.992       .  S
O623        H627   0.992       .  S
C629        C630   1.404       .  A
C629        C634   1.412       .  A
C629        H639   1.084       .  S
C630        C635   1.486       .  S
C630        C631   1.404       .  A
C631        C632   1.399       .  A
C631        O636   1.372       .  S
C632        C633   1.408       .  A
C632        H637   1.083       .  S
C633        C634   1.415       .  A
C634        O638   1.373       .  S
C635        C640   1.403       .  A
C635        C644   1.398       .  A
O636        H652   0.992       .  S
O638        H649   0.992       .  S
C640        C641   1.400       .  A
C640        O645   1.371       .  S
C641        C642   1.416       .  A
C641        H646   1.083       .  S
C642        C643   1.432       .  A
C643        C644   1.407       .  A
C643        O647   1.371       .  S
C644        H648   1.084       .  S
O645        H650   0.992       .  S
O647        H651   0.992       .  S
C653        C654   1.396       .  A
C653        C658   1.401       .  A
C653        H663   1.084       .  S
C654        C659   1.478       .  S
C654        C655   1.402       .  A
C655        C656   1.402       .  A
C655        O660   1.372       .  S
C656        C657   1.419       .  A
C656        H661   1.078       .  S
C657        C658   1.425       .  A
C658        O662   1.374       .  S
C659        C664   1.405       .  A
C659        C668   1.405       .  A
O660        H676   0.992       .  S
O662        H673   0.992       .  S
C664        C665   1.396       .  A
C664        O669   1.372       .  S
C665        C666   1.403       .  A
C665        H670   1.084       .  S
C666        C667   1.410       .  A
C667        C668   1.405       .  A
C667        O671   1.372       .  S
C668        H672   1.083       .  S
O669        H674   0.992       .  S
O671        H675   0.992       .  S
C677        C678   1.403       .  A
C677        C682   1.399       .  A
C677        H687   1.084       .  S
C678        C683   1.489       .  S
C678        C679   1.412       .  A
C679        C680   1.403       .  A
C679        O684   1.372       .  S
C680        C681   1.405       .  A
C680        H685   1.083       .  S
C681        C682   1.411       .  A
C682        O686   1.370       .  S
C683        C688   1.408       .  A
C683        C692   1.399       .  A
O684        H700   0.992       .  S
O686        H697   0.991       .  S
C688        C689   1.402       .  A
C688        O693   1.372       .  S
C689        C690   1.414       .  A
C689        H694   1.079       .  S
C690        C691   1.424       .  A
C691        C692   1.399       .  A
C691        O695   1.373       .  S
C692        H696   1.083       .  S
O693        H698   0.992       .  S
O695        H699   0.992       .  S
C701        C702   1.400       .  A
C701        C706   1.393       .  A
C701        H711   1.083       .  S
C702        C707   1.487       .  S
C702        C703   1.413       .  A
C703        C704   1.402       .  A
C703        O708   1.372       .  S
C704        C705   1.404       .  A
C704        H709   1.083       .  S
C705        C706   1.416       .  A
C706        O710   1.372       .  S
C707        C712   1.407       .  A
C707        C716   1.399       .  A
O708        H724   0.992       .  S
O710        H721   0.992       .  S
C712        C713   1.397       .  A
C712        O717   1.372       .  S
C713        C714   1.414       .  A
C713        H718   1.083       .  S
C714        C715   1.427       .  A
C715        C716   1.401       .  A
C715        O719   1.373       .  S
C716        H720   1.084       .  S
O717        H722   0.992       .  S
O719        H723   0.993       .  S
C725        C726   1.401       .  A
C725        C730   1.405       .  A
C725        H735   1.083       .  S
C726        C731   1.500       .  S
C726        C727   1.409       .  A
C727        C728   1.404       .  A
C727        O732   1.371       .  S
C728        C729   1.417       .  A
C728        H733   1.081       .  S
C729        C730   1.429       .  A
C730        O734   1.373       .  S
C731        C736   1.416       .  A
C731        C740   1.407       .  A
O732        H748   0.992       .  S
O734        H745   0.993       .  S
C736        C737   1.405       .  A
C736        O741   1.371       .  S
C737        C738   1.402       .  A
C737        H742   1.084       .  S
C738        C739   1.409       .  A
C739        C740   1.403       .  A
C739        O743   1.372       .  S
C740        H744   1.083       .  S
O741        H746   0.992       .  S
O743        H747   0.992       .  S
C749        C750   1.408       .  A
C749        C754   1.406       .  A
C749        H759   1.083       .  S
C750        C755   1.501       .  S
C750        C751   1.412       .  A
C751        C752   1.405       .  A
C751        O756   1.371       .  S
C752        C753   1.407       .  A
C752        H757   1.084       .  S
C753        C754   1.413       .  A
C754        O758   1.372       .  S
C755        C760   1.406       .  A
C755        C764   1.404       .  A
O756        H772   0.992       .  S
O758        H769   0.992       .  S
C760        C761   1.402       .  A
C760        O765   1.372       .  S
C761        C762   1.421       .  A
C761        H766   1.078       .  S
C762        C763   1.423       .  A
C763        C764   1.409       .  A
C763        O767   1.372       .  S
C764        H768   1.083       .  S
O765        H770   0.992       .  S
O767        H771   0.991       .  S
C773        C774   1.402       .  A
C773        C778   1.403       .  A
C773        H783   1.084       .  S
C774        C779   1.478       .  S
C774        C775   1.404       .  A
C775        C776   1.400       .  A
C775        O780   1.372       .  S
C776        C777   1.409       .  A
C776        H781   1.084       .  S
C777        C778   1.412       .  A
C778        O782   1.371       .  S
C779        C784   1.402       .  A
C779        C788   1.395       .  A
O780        H796   0.992       .  S
O782        H793   0.992       .  S
C784        C785   1.400       .  A
C784        O789   1.372       .  S
C785        C786   1.417       .  A
C785        H790   1.081       .  S
C786        C787   1.429       .  A
C787        C788   1.402       .  A
C787        O791   1.371       .  S
C788        H792   1.084       .  S
O789        H794   0.992       .  S
O791        H795   0.992       .  S
C797        C798   1.401       .  A
C797        C802   1.404       .  A
C797        H807   1.084       .  S
C798        C803   1.485       .  S
C798        C799   1.406       .  A
C799        C800   1.405       .  A
C799        O804   1.372       .  S
C800        C801   1.410       .  A
C800        H805   1.083       .  S
C801        C802   1.417       .  A
C802        O806   1.371       .  S
C803        C808   1.401       .  A
C803        C812   1.399       .  A
O804        H820   0.991       .  S
O806        H817   0.992       .  S
C808        C809   1.402       .  A
C808        O813   1.372       .  S
C809        C810   1.418       .  A
C809        H814   1.078       .  S
C810        C811   1.426       .  A
C811        C812   1.405       .  A
C811        O815   1.373       .  S
C812        H816   1.084       .  S
O813        H818   0.992       .  S
O815        H819   0.992       .  S
C821        C822   1.396       .  A
C821        C826   1.399       .  A
C821        H831   1.084       .  S
C822        C827   1.476       .  S
C822        C823   1.401       .  A
C823        C824   1.401       .  A
C823        O828   1.372       .  S
C824        C825   1.419       .  A
C824        H829   1.079       .  S
C825        C826   1.425       .  A
C826        O830   1.374       .  S
C827        C832   1.405       .  A
C827        C836   1.402       .  A
O828        H844   0.992       .  S
O830        H841   0.992       .  S
C832        C833   1.399       .  A
C832        O837   1.372       .  S
C833        C834   1.409       .  A
C833        H838   1.084       .  S
C834        C835   1.410       .  A
C835        C836   1.401       .  A
C835        O839   1.371       .  S
C836        H840   1.084       .  S
O837        H842   0.992       .  S
O839        H843   0.992       .  S
C845        C846   1.403       .  A
C845        C850   1.398       .  A
C845        H855   1.083       .  S
C846        C851   1.489       .  S
C846        C847   1.413       .  A
C847        C848   1.403       .  A
C847        O852   1.371       .  S
C848        C849   1.403       .  A
C848        H853   1.083       .  S
C849        C850   1.413       .  A
C850        O854   1.373       .  S
C851        C856   1.407       .  A
C851        C860   1.399       .  A
O852        H868   0.992       .  S
O854        H865   0.992       .  S
C856        C857   1.403       .  A
C856        O861   1.373       .  S
C857        C858   1.416       .  A
C857        H862   1.079       .  S
C858        C859   1.424       .  A
C859        C860   1.399       .  A
C859        O863   1.372       .  S
C860        H864   1.083       .  S
O861        H866   0.992       .  S
O863        H867   0.992       .  S
C869        C870   1.397       .  A
C869        C874   1.402       .  A
C869        H879   1.084       .  S
C870        C875   1.473       .  S
C870        C871   1.400       .  A
C871        C872   1.393       .  A
C871        O876   1.373       .  S
C872        C873   1.417       .  A
C872        H877   1.078       .  S
C873        C874   1.425       .  A
C874        O878   1.373       .  S
C875        C880   1.406       .  A
C875        C884   1.399       .  A
O876        H892   0.992       .  S
O878        H889   0.992       .  S
C880        C881   1.395       .  A
C880        O885   1.371       .  S
C881        C882   1.404       .  A
C881        H886   1.083       .  S
C882        C883   1.417       .  A
C883        C884   1.399       .  A
C883        O887   1.372       .  S
C884        H888   1.084       .  S
O885        H890   0.992       .  S
O887        H891   0.992       .  S
