geometry optimzed in LAMMPS
_audit_creation_date              2020-11-30 
_audit_creation_method            'lammps2cif' 
_symmetry_space_group_name_H-M    'P1' 
_symmetry_Int_Tables_number       1 
_symmetry_cell_setting            triclinic 
loop_ 
_symmetry_equiv_pos_as_xyz 
  x,y,z 
_cell_length_a                    45.64289724 
_cell_length_b                    50.325513359315394 
_cell_length_c                    77.8578322481356 
_cell_angle_alpha                 90.70883404652578 
_cell_angle_beta                  90.14808790864917 
_cell_angle_gamma                 116.80853158403299 
loop_ 
_atom_site_label 
_atom_site_type_symbol 
_atom_site_fract_x 
_atom_site_fract_y 
_atom_site_fract_z 
_atom_site_charge 
O1          O  0.40400786  0.17929810  0.85531165    -0.80500
O2          O  0.33831024  0.24822275  0.81376413    -0.65200
O3          O  0.35966917  0.20148696  0.84518343    -1.11800
C4          C  0.29833792  0.12095871  0.80885551     1.06400
O5          O  0.28757655  0.21356441  0.80780079    -0.78400
O6          O  0.27246742  0.17079581  0.83209890    -0.66000
Ni7        Ni  0.40374791  0.21745407  0.85419620     1.34900
C8          C  0.27841140  0.15580205  0.84338482     0.85100
O9          O  0.36540339  0.25921183  0.84458848    -0.79000
O10         O  0.40986841  0.25809124  0.85564830    -0.89200
C11         C  0.30958250  0.24053404  0.80793143     0.84700
O12         O  0.42225601  0.22309977  0.83197748    -0.67400
O13         O  0.28031933  0.13420724  0.80815586    -0.86700
C14         C  0.41723508  0.23594704  0.81920078     0.85500
C15         C  0.39186488  0.27101904  0.85318820     1.07100
H16         H  0.34562054  0.19459986  0.80459908     0.38900
O17         O  0.33288117  0.19093614  0.81498716    -1.09400
O18         O  0.30312257  0.15044174  0.84254133    -0.66000
Ni19       Ni  0.34407603  0.16718387  0.83002320     1.26300
O20         O  0.39212141  0.24084502  0.81776232    -0.66300
O21         O  0.32772201  0.13366609  0.81447095    -0.78600
C22         C  0.38348397  0.15217027  0.85286768     0.84900
O23         O  0.35659620  0.14429415  0.84489035    -0.65700
Ni24       Ni  0.28712798  0.17503498  0.80887137     1.27400
Ni25       Ni  0.34989671  0.22559025  0.82951293     1.26100
H26         H  0.34526085  0.19743994  0.85491259     0.39400
C27         C  0.18787746  0.40746170  0.75748208     0.86900
C28         C  0.18425455  0.40035519  0.73814130    -0.53400
C29         C  0.16565283  0.37071400  0.73420847     0.09800
C30         C  0.15244070  0.35112743  0.75022490     0.20700
C31         C  0.15260456  0.39486360  0.76402697    -0.54100
C32         C  0.13373127  0.36534534  0.76036272     0.09900
C33         C  0.20164176  0.38736159  0.76494004    -0.53600
C34         C  0.18347548  0.35777280  0.76106880     0.10500
H35         H  0.19556363  0.41753543  0.72866709     0.15000
H36         H  0.13784774  0.32713795  0.74706156     0.00700
H37         H  0.14334906  0.40829328  0.77101329     0.15300
H38         H  0.22382757  0.39620151  0.77274208     0.15100
C39         C  0.51034601  0.48864602  0.90338190     0.86900
C40         C  0.49030424  0.50439924  0.89709259    -0.53400
C41         C  0.49944496  0.03196168  0.90597857     0.09800
C42         C  0.03028751  0.03956510  0.91829515     0.20700
C43         C  0.05069829  0.51275568  0.89910212    -0.54100
C44         C  0.05613694  0.03607716  0.90705214     0.09900
C45         C  0.50749327  0.48806723  0.92295796    -0.53600
C46         C  0.02080845  0.51565362  0.92992412     0.10500
H47         H  0.47060897  0.49441949  0.88769493     0.15000
H48         H  0.03918620  0.06215283  0.92415174     0.00700
H49         H  0.06646027  0.50797379  0.89050679     0.15300
H50         H  0.49940945  0.46755755  0.93000480     0.15100
O51         O  0.09565373  0.01004802  0.47462172    -0.80500
O52         O  0.46553209  0.44669778  0.52077717    -0.65200
O53         O  0.02683850  0.48806043  0.48746677    -1.11800
C54         C  0.06226315  0.07053415  0.52581033     1.06400
O55         O  0.45130040  0.48279159  0.52587664    -0.78400
O56         O  0.47970365  0.03072879  0.50590214    -0.66000
Ni57       Ni  0.05383014  0.47128110  0.47793323     1.34900
C58         C  0.49599808  0.04033875  0.49220930     0.85100
O59         O  0.47562098  0.43184500  0.48951336    -0.79000
O60         O  0.01762878  0.43161699  0.47657634    -0.89200
C61         C  0.44551638  0.45555714  0.52656459     0.84700
O62         O  0.06765246  0.46297365  0.49943076    -0.67400
O63         O  0.03147877  0.05952363  0.52858705    -0.86700
C64         C  0.05165791  0.45256187  0.51310871     0.85500
C65         C  0.48848552  0.41906261  0.48027635     1.07100
H66         H  0.03087092  0.99725409  0.52777979     0.38900
O67         O  0.02041753  0.00189746  0.51826679    -1.09400
O68         O  0.02894741  0.04344198  0.49182282    -0.66000
Ni69       Ni  0.05307029  0.02425916  0.50195917     1.26300
O70         O  0.02363194  0.45147595  0.51597879    -0.66300
O71         O  0.07502874  0.05680753  0.51738462    -0.78600
C72         C  0.10309015  0.03745259  0.47695281     0.84900
O73         O  0.08560947  0.04602476  0.48569631    -0.65700
Ni74       Ni  0.49096457  0.01848563  0.52707943     1.27400
Ni75       Ni  0.49706508  0.46667472  0.50356889     1.26100
H76         H  0.01490313  0.49107622  0.47804097     0.39400
C77         C  0.38951635  0.20566729  0.42441817     0.86900
C78         C  0.35292289  0.18924224  0.42902516    -0.53400
C79         C  0.33813781  0.15982970  0.42400446     0.09800
C80         C  0.36139907  0.15010123  0.41457060     0.20700
C81         C  0.40499474  0.18712027  0.43231336    -0.54100
C82         C  0.39016266  0.15780074  0.42723208     0.09900
C83         C  0.39054327  0.20116106  0.40496936    -0.53600
C84         C  0.37553628  0.17203723  0.39965055     0.10500
H85         H  0.34045974  0.20012575  0.43576946     0.15000
H86         H  0.34943941  0.12634099  0.41037727     0.00700
H87         H  0.42493870  0.19638552  0.44162063     0.15300
H88         H  0.40243490  0.21967240  0.39634081     0.15100
C89         C  0.16056152  0.28578215  0.57988674     0.86900
C90         C  0.14119372  0.29893040  0.56999865    -0.53400
C91         C  0.15244490  0.32880834  0.57243217     0.09800
C92         C  0.18220624  0.34280595  0.58479520     0.20700
C93         C  0.19637891  0.30419833  0.57447269    -0.54100
C94         C  0.20782575  0.33426540  0.57692920     0.09900
C95         C  0.15964506  0.29463667  0.59871354    -0.53600
C96         C  0.17099838  0.32463108  0.60139764     0.10500
H97         H  0.12080571  0.28578269  0.56141239     0.15000
H98         H  0.19175667  0.36715379  0.58688589     0.00700
H99         H  0.21056114  0.29405733  0.56870876     0.15300
H100        H  0.15151789  0.27843440  0.60889246     0.15100
O101        O  0.21895017  0.30029511  0.18966117    -0.80500
O102        O  0.14801058  0.36519410  0.15022456    -0.65200
O103        O  0.17166270  0.32060739  0.18158167    -1.11800
C104        C  0.11871827  0.24126252  0.14166843     1.06400
O105        O  0.09867855  0.32937652  0.14315010    -0.78400
O106        O  0.08121189  0.28121184  0.16312975    -0.66000
Ni107      Ni  0.21631294  0.33773006  0.18995471     1.34900
C108        C  0.08800772  0.27043202  0.17634303     0.85100
O109        O  0.17380007  0.37660860  0.18127207    -0.79000
O110        O  0.21919772  0.37724565  0.19255809    -0.89200
C111        C  0.11954013  0.35671440  0.14403401     0.84700
O112        O  0.23597437  0.34679530  0.16774817    -0.67400
O113        O  0.10091760  0.25395424  0.13792642    -0.86700
C114        C  0.22890964  0.35907570  0.15531443     0.85500
C115        C  0.20015796  0.38918099  0.18997702     1.07100
H116        H  0.16130937  0.31392800  0.14142680     0.38900
O117        O  0.14653282  0.30941574  0.15102350    -1.09400
O118        O  0.11522033  0.26950935  0.17841805    -0.66000
Ni119      Ni  0.15715091  0.28627968  0.16687953     1.26300
O120        O  0.20218665  0.36117596  0.15442679    -0.66300
O121        O  0.14318131  0.25263781  0.15181861    -0.78600
C122        C  0.19764202  0.27302815  0.18908853     0.84900
O123        O  0.16922903  0.26465437  0.18278768    -0.65700
Ni124      Ni  0.10263914  0.29268392  0.14162853     1.27400
Ni125      Ni  0.16036418  0.34346050  0.16593420     1.26100
H126        H  0.15753098  0.31631222  0.19144612     0.39400
C127        C  0.00199750  0.02337448  0.09369159     0.86900
C128        C  0.00349498  0.02332225  0.07409481    -0.53400
C129        C  0.99274723  0.99562347  0.06674328     0.09800
C130        C  0.47510480  0.46913213  0.07814079     0.20700
C131        C  0.46804433  0.00228372  0.09928162    -0.54100
C132        C  0.44963427  0.47295018  0.08951533     0.09900
C133        C  0.02155818  0.00700735  0.09958242    -0.53600
C134        C  0.00688699  0.47831364  0.08987063     0.10500
H135        H  0.01286909  0.04386150  0.06701230     0.15000
H136        H  0.46566735  0.44667733  0.07204095     0.00700
H137        H  0.45478187  0.00855987  0.10874560     0.15300
H138        H  0.04169054  0.01682213  0.10873029     0.15100
C139        C  0.31551232  0.10482223  0.24341945     0.86900
C140        C  0.29677788  0.12243489  0.23847095    -0.53400
C141        C  0.31438252  0.15257224  0.24117624     0.09800
C142        C  0.34882598  0.16197278  0.24898891     0.20700
C143        C  0.34772158  0.11931585  0.23345342    -0.54100
C144        C  0.36524157  0.14923554  0.23622113     0.09900
C145        C  0.32536350  0.11327184  0.26227054    -0.53600
C146        C  0.34293292  0.14325437  0.26534749     0.10500
H147        H  0.27202572  0.11174878  0.23323775     0.15000
H148        H  0.36281778  0.18634798  0.25131027     0.00700
H149        H  0.35552760  0.10702668  0.22453727     0.15300
H150        H  0.31798140  0.09669212  0.27223033     0.15100
C151        C  0.30880565  0.39200028  0.12877532     0.19100
C152        C  0.33566166  0.38586426  0.12639470    -0.19000
C153        C  0.36225424  0.40425303  0.11623797    -0.11300
C154        C  0.36261639  0.42940768  0.10833586     0.21300
C155        C  0.33539051  0.43506333  0.11035286    -0.20600
C156        C  0.30879545  0.41664455  0.12040599    -0.11500
C157        C  0.39240322  0.45240802  0.09999652    -0.15600
C158        C  0.41750019  0.44782736  0.09405725    -0.29500
C159        C  0.28297655  0.37423478  0.14134527    -0.03800
C160        C  0.25276733  0.37275887  0.14135836    -0.40300
H161        H  0.33651819  0.36727139  0.13284168     0.12500
H162        H  0.38310234  0.39954141  0.11539114     0.12100
H163        H  0.33522912  0.45452508  0.10464450     0.11500
H164        H  0.28920305  0.42283634  0.12225900     0.11800
H165        H  0.39420366  0.47464253  0.09935101     0.14500
H166        H  0.41522732  0.42545677  0.09310956     0.13300
H167        H  0.28947279  0.36273109  0.15123914     0.11000
H168        H  0.24539855  0.38296686  0.13112275     0.13000
C169        C  0.07451040  0.16581932  0.11740484     0.19100
C170        C  0.04168117  0.14805167  0.11254270    -0.19000
C171        C  0.03136287  0.11891089  0.10653550    -0.11300
C172        C  0.05379791  0.10693107  0.10520328     0.21300
C173        C  0.08687345  0.12502102  0.10935753    -0.20600
C174        C  0.09719134  0.15415361  0.11546424    -0.11500
C175        C  0.04353451  0.07607015  0.09891530    -0.15600
C176        C  0.01323173  0.05404457  0.10146027    -0.29500
C177        C  0.08402792  0.19638450  0.12421362    -0.03800
C178        C  0.11072994  0.21164745  0.13416622    -0.40300
H179        H  0.02384205  0.15664976  0.11356233     0.12500
H180        H  0.00591848  0.10599502  0.10273871     0.12100
H181        H  0.10471185  0.11647128  0.10804451     0.11500
H182        H  0.12295620  0.16743834  0.11841413     0.11800
H183        H  0.06138258  0.07116438  0.09215797     0.14500
H184        H  0.99580325  0.05837518  0.10898523     0.13300
H185        H  0.06744131  0.20603544  0.12166960     0.11000
H186        H  0.12671269  0.20182637  0.13761549     0.08200
C187        C  0.07161327  0.39608172  0.12477188     0.19100
C188        C  0.04686501  0.38784504  0.11221137    -0.19000
C189        C  0.03656247  0.40837741  0.10624319    -0.11300
C190        C  0.05078505  0.43776581  0.11281273     0.21300
C191        C  0.07537921  0.44590862  0.12550334    -0.20600
C192        C  0.08572030  0.42537056  0.13144170    -0.11500
C193        C  0.03942063  0.46003644  0.10769811    -0.15600
C194        C  0.02048006  0.45718736  0.09379244    -0.29500
C195        C  0.08105750  0.37319946  0.13101209    -0.03800
C196        C  0.11050213  0.37982597  0.13810487    -0.40300
H197        H  0.03531182  0.36532392  0.10703046     0.12500
H198        H  0.01688449  0.40068368  0.09686195     0.12100
H199        H  0.08640962  0.46820840  0.13100955     0.11500
H200        H  0.10410537  0.43236711  0.14154054     0.11800
H201        H  0.05628571  0.98260172  0.11644432     0.14500
H202        H  0.01317402  0.43814624  0.08519948     0.13300
H203        H  0.06348190  0.34996848  0.12910585     0.11000
H204        H  0.12898986  0.40283042  0.13934401     0.13000
C205        C  0.26723946  0.19191435  0.22017415     0.19100
C206        C  0.23521838  0.18203007  0.21374806    -0.19000
C207        C  0.22391871  0.20232675  0.20856536    -0.11300
C208        C  0.24473441  0.23321731  0.20940028     0.21300
C209        C  0.27686200  0.24303864  0.21573367    -0.20600
C210        C  0.28809401  0.22271840  0.22098518    -0.11500
C211        C  0.23448614  0.25601828  0.20366138    -0.15600
C212        C  0.20611473  0.24971719  0.19535440    -0.29500
C213        C  0.27809628  0.16935786  0.22537440    -0.03800
C214        C  0.30301568  0.17501031  0.23648161    -0.40300
H215        H  0.21869852  0.15842451  0.21288363     0.12500
H216        H  0.19887011  0.19341406  0.20403139     0.12100
H217        H  0.29356348  0.26660949  0.21643829     0.11500
H218        H  0.31328497  0.23130532  0.22531833     0.11800
H219        H  0.25161625  0.27925389  0.20601829     0.14500
H220        H  0.18838994  0.22690895  0.19267064     0.13300
H221        H  0.26456599  0.14715687  0.21989747     0.11000
H222        H  0.31650771  0.19708768  0.24210166     0.13000
C223        C  0.27302162  0.02751462  0.22028890     0.19100
C224        C  0.25418160  0.01654072  0.20523697    -0.19000
C225        C  0.24245059  0.98665957  0.20023692    -0.11300
C226        C  0.24799222  0.46706005  0.21120652     0.21300
C227        C  0.26871801  0.97811691  0.22512607    -0.20600
C228        C  0.28026181  0.00795511  0.23018935    -0.11500
C229        C  0.23705301  0.43555354  0.20569488    -0.15600
C230        C  0.20915277  0.41945420  0.19677836    -0.29500
C231        C  0.28699739  0.05988214  0.22443184    -0.03800
C232        C  0.29698452  0.07154220  0.24027511    -0.40300
H233        H  0.24883761  0.03125658  0.19719318     0.12500
H234        H  0.22055235  0.47802747  0.19202218     0.12100
H235        H  0.27502557  0.96365019  0.23285171     0.11500
H236        H  0.29572100  0.01573732  0.24152734     0.11800
H237        H  0.25273557  0.42531507  0.20905635     0.14500
H238        H  0.19241395  0.42878987  0.19399800     0.13300
H239        H  0.28991613  0.07490252  0.21393555     0.11000
H240        H  0.29289716  0.05693961  0.25109881     0.13000
C241        C  0.44788851  0.20980104  0.21969819     0.19100
C242        C  0.98257774  0.22484326  0.22827478    -0.19000
C243        C  0.00960072  0.23948883  0.21748439    -0.11300
C244        C  0.00492929  0.23961120  0.19960710     0.21300
C245        C  0.97297005  0.22546429  0.19283110    -0.20600
C246        C  0.44421215  0.21031094  0.20179967    -0.11500
C247        C  0.03228867  0.25477538  0.18749095    -0.15600
C248        C  0.06288493  0.25782911  0.18986392    -0.29500
C249        C  0.41893716  0.19355131  0.23081022    -0.03800
C250        C  0.39481859  0.16693243  0.22590179    -0.40300
H251        H  0.98656150  0.22481410  0.24199321     0.12500
H252        H  0.03391027  0.25092590  0.22313652     0.12100
H253        H  0.96870089  0.22561116  0.17914322     0.11500
H254        H  0.42009243  0.19968755  0.19584842     0.11800
H255        H  0.02613902  0.26171819  0.17540336     0.14500
H256        H  0.06910548  0.24954446  0.20142156     0.13300
H257        H  0.41850794  0.20259831  0.24348676     0.11000
H258        H  0.39732046  0.15691558  0.21389605     0.13000
C259        C  0.36271255  0.15282213  0.31448247     0.19100
C260        C  0.36869778  0.13546888  0.32669901    -0.19000
C261        C  0.37395400  0.14417846  0.34401682    -0.11300
C262        C  0.37301192  0.17045123  0.34959644     0.21300
C263        C  0.36792594  0.18825677  0.33733027    -0.20600
C264        C  0.36260959  0.17951877  0.31999066    -0.11500
C265        C  0.37750664  0.18028170  0.36795515    -0.15600
C266        C  0.37239751  0.16191455  0.38135551    -0.29500
C267        C  0.35465629  0.14106999  0.29651353    -0.03800
C268        C  0.35388002  0.15692584  0.28278592    -0.40300
H269        H  0.36905611  0.11485832  0.32284583     0.12500
H270        H  0.37886453  0.13029977  0.35290155     0.12100
H271        H  0.36730365  0.20872892  0.34124531     0.11500
H272        H  0.35756682  0.19336062  0.31114836     0.11800
H273        H  0.38345336  0.20341713  0.37039819     0.14500
H274        H  0.36395419  0.13829292  0.37906766     0.13300
H275        H  0.34924750  0.11792946  0.29463463     0.11000
H276        H  0.36158292  0.18061373  0.28410154     0.13000
C277        C  0.18729653  0.07836923  0.45459127     0.19100
C278        C  0.20364358  0.07081615  0.44164774    -0.19000
C279        C  0.23438685  0.09160479  0.43584460    -0.11300
C280        C  0.24987009  0.12057580  0.44306587     0.21300
C281        C  0.23326025  0.12820263  0.45588055    -0.20600
C282        C  0.20247517  0.10742919  0.46163857    -0.11500
C283        C  0.28339832  0.14334042  0.43810497    -0.15600
C284        C  0.30363550  0.13790474  0.42761943    -0.29500
C285        C  0.15543087  0.05491407  0.46095460    -0.03800
C286        C  0.13362558  0.06085939  0.46970226    -0.40300
H287        H  0.19259507  0.04861537  0.43600902     0.12500
H288        H  0.24560884  0.08451450  0.42577898     0.12100
H289        H  0.24445388  0.15022955  0.46174858     0.11500
H290        H  0.19131216  0.11410932  0.47195766     0.11800
H291        H  0.29215453  0.16519381  0.44407020     0.14500
H292        H  0.29579045  0.11600508  0.42195387     0.13300
H293        H  0.14970228  0.03183340  0.45826309     0.11000
H294        H  0.13819163  0.08372762  0.47191082     0.13000
C295        C  0.42624178  0.27939640  0.45109785     0.19100
C296        C  0.41479939  0.29068892  0.46465786    -0.19000
C297        C  0.43144581  0.32082408  0.46944414    -0.11300
C298        C  0.46018363  0.34014656  0.46083583     0.21300
C299        C  0.47208994  0.32853188  0.44763298    -0.20600
C300        C  0.45531113  0.29854903  0.44276277    -0.11500
C301        C  0.47956928  0.37203074  0.46579408    -0.15600
C302        C  0.46744173  0.38799996  0.47461582    -0.29500
C303        C  0.40806843  0.24747202  0.44610550    -0.03800
C304        C  0.40646695  0.23814982  0.42971913    -0.40300
H305        H  0.39277927  0.27620268  0.47146061     0.12500
H306        H  0.42208462  0.32861300  0.48009473     0.12100
H307        H  0.49451587  0.34273835  0.44104090     0.11500
H308        H  0.46545914  0.29030531  0.43266595     0.11800
H309        H  0.00368665  0.38306453  0.46167596     0.14500
H310        H  0.44175556  0.37808175  0.47815269     0.13300
H311        H  0.39499486  0.23138812  0.45595272     0.11000
H312        H  0.41789620  0.25449582  0.41976679     0.13000
C313        C  0.43321943  0.11766591  0.45124288     0.19100
C314        C  0.46604928  0.12370985  0.45393846    -0.19000
C315        C  0.47390127  0.10386213  0.46291854    -0.11300
C316        C  0.44899133  0.07755898  0.46962696     0.21300
C317        C  0.41611219  0.07147937  0.46697313    -0.20600
C318        C  0.40822538  0.09118835  0.45776866    -0.11500
C319        C  0.45686754  0.05787285  0.48084455    -0.15600
C320        C  0.48455732  0.05481528  0.47918819    -0.29500
C321        C  0.42619722  0.14060653  0.44285635    -0.03800
C322        C  0.39801152  0.13444130  0.43440884    -0.40300
H323        H  0.48576183  0.14415246  0.44930764     0.12500
H324        H  0.49953283  0.10985053  0.46520860     0.12100
H325        H  0.39650123  0.05165948  0.47227878     0.11500
H326        H  0.38265663  0.08618905  0.45640142     0.11800
H327        H  0.43990314  0.04642588  0.49109758     0.14500
H328        H  0.50062591  0.06489111  0.46839366     0.13300
H329        H  0.44543870  0.16337957  0.44343787     0.11000
H330        H  0.37982780  0.11145760  0.43254715     0.13000
C331        C  0.29678161  0.37438764  0.55922407     0.19100
C332        C  0.32382755  0.36818129  0.55895072    -0.19000
C333        C  0.35406166  0.38877874  0.55246932    -0.11300
C334        C  0.35786035  0.41605479  0.54580078     0.21300
C335        C  0.33074298  0.42220953  0.54606883    -0.20600
C336        C  0.30052371  0.40163059  0.55259699    -0.11500
C337        C  0.38960374  0.43884238  0.53876115    -0.15600
C338        C  0.41435086  0.43290172  0.53379923    -0.29500
C339        C  0.26485172  0.35135665  0.56574946    -0.03800
C340        C  0.24060121  0.35740885  0.57146589    -0.40300
H341        H  0.32163606  0.34734761  0.56391092     0.12500
H342        H  0.37432544  0.38324580  0.55298703     0.12100
H343        H  0.33282430  0.44293494  0.54100288     0.11500
H344        H  0.28009345  0.40696275  0.55205358     0.11800
H345        H  0.39226120  0.46122811  0.53709151     0.14500
H346        H  0.41170485  0.41043593  0.53451930     0.13300
H347        H  0.26174684  0.32870769  0.56610407     0.11000
H348        H  0.24454465  0.38030596  0.57225133     0.13000
C349        C  0.12974928  0.20874959  0.55723886     0.19100
C350        C  0.13999043  0.19751404  0.54314795    -0.19000
C351        C  0.12264831  0.16754459  0.53818953    -0.11300
C352        C  0.09442730  0.14830680  0.54719411     0.21300
C353        C  0.08431950  0.15960570  0.56129651    -0.20600
C354        C  0.10178899  0.18944606  0.56632699    -0.11500
C355        C  0.07348264  0.11704138  0.54159622    -0.15600
C356        C  0.08430358  0.10096820  0.53198721    -0.29500
C357        C  0.14669038  0.24112279  0.56116816    -0.03800
C358        C  0.14731820  0.25265292  0.57692513    -0.40300
H359        H  0.16114413  0.21210177  0.53578210     0.12500
H360        H  0.13072318  0.15995464  0.52693965     0.12100
H361        H  0.06243233  0.14537878  0.56828343     0.11500
H362        H  0.09250752  0.19753968  0.57688639     0.11800
H363        H  0.04807436  0.10675349  0.54574007     0.14500
H364        H  0.10995223  0.11022166  0.52842197     0.13300
H365        H  0.15847330  0.25612768  0.55064482     0.11000
H366        H  0.13722061  0.23799785  0.58775999     0.13000
C367        C  0.10369823  0.41847541  0.53398816     0.19100
C368        C  0.11822749  0.40165684  0.52674734    -0.19000
C369        C  0.13080622  0.38677961  0.53718259    -0.11300
C370        C  0.12955039  0.38872784  0.55516688     0.21300
C371        C  0.11615960  0.40642637  0.56247012    -0.20600
C372        C  0.10300766  0.42095499  0.55199458    -0.11500
C373        C  0.14264239  0.37282251  0.56638858    -0.15600
C374        C  0.13870358  0.34538138  0.56226742    -0.29500
C375        C  0.09052893  0.43364344  0.52222942    -0.03800
C376        C  0.06579154  0.44029402  0.52614446    -0.40300
H377        H  0.11954644  0.39975526  0.51292446     0.12500
H378        H  0.14188282  0.37403880  0.53116173     0.12100
H379        H  0.11542080  0.40861994  0.57629910     0.11500
H380        H  0.09283985  0.43442142  0.55800218     0.11800
H381        H  0.15426917  0.38329128  0.57847442     0.14500
H382        H  0.12426004  0.33416503  0.55092923     0.13300
H383        H  0.10020100  0.43759569  0.50926177     0.11000
H384        H  0.05411997  0.43463789  0.53860150     0.13000
C385        C  0.00301681  0.50631179  0.01514966     0.19100
C386        C  0.02662173  0.52934052  0.00544975    -0.19000
C387        C  0.02726542  0.52701974  0.98756570    -0.11300
C388        C  0.00922663  0.00256862  0.98117440     0.21300
C389        C  0.48240123  0.97845776  0.99079764    -0.20600
C390        C  0.48220946  0.98064530  0.00875155    -0.11500
C391        C  0.50202921  0.99892857  0.96174764    -0.15600
C392        C  0.01998491  0.52015665  0.94883123    -0.29500
C393        C  0.00344218  0.51054083  0.03414002    -0.03800
C394        C  0.99284166  0.98986572  0.04787669    -0.40300
H395        H  0.04495617  0.54922577  0.01176607     0.12500
H396        H  0.04652734  0.54498083  0.98076634     0.12100
H397        H  0.46641360  0.95738550  0.98465035     0.11500
H398        H  0.46583546  0.96122671  0.01574314     0.11800
H399        H  0.48599993  0.97674055  0.95692195     0.14500
H400        H  0.03206769  0.54296147  0.95354317     0.13300
H401        H  0.01911579  0.53284780  0.03892124     0.11000
H402        H  0.47444461  0.96689836  0.04361281     0.13000
C403        C  0.16765484  0.36010679  0.68441558     0.19100
C404        C  0.18576758  0.37869418  0.67102418    -0.19000
C405        C  0.18321964  0.36767939  0.65420447    -0.11300
C406        C  0.16219497  0.33759315  0.65028515     0.21300
C407        C  0.14377375  0.31910110  0.66362881    -0.20600
C408        C  0.14632871  0.33010855  0.68044502    -0.11500
C409        C  0.15896854  0.32412799  0.63274997    -0.15600
C410        C  0.17402659  0.33917716  0.61854289    -0.29500
C411        C  0.17242878  0.37309924  0.70217517    -0.03800
C412        C  0.15887653  0.35753195  0.71649368    -0.40300
H413        H  0.20236192  0.40190367  0.67361013     0.12500
H414        H  0.19812099  0.38292435  0.64453079     0.12100
H415        H  0.12733269  0.29584646  0.66106062     0.11500
H416        H  0.13150772  0.31481150  0.69011501     0.11800
H417        H  0.14297363  0.30042773  0.63160141     0.14500
H418        H  0.18889590  0.36306011  0.61909284     0.13300
H419        H  0.18890400  0.39665783  0.70338480     0.11000
H420        H  0.14285159  0.33387523  0.71562601     0.13000
C421        C  0.46057900  0.40514236  0.89015500     0.19100
C422        C  0.42710565  0.38619214  0.88746496    -0.19000
C423        C  0.41670533  0.35738269  0.88080403    -0.11300
C424        C  0.43968732  0.34682823  0.87672708     0.21300
C425        C  0.47307299  0.36539540  0.88001757    -0.20600
C426        C  0.48348652  0.39424839  0.88662733    -0.11500
C427        C  0.42970813  0.31642656  0.86948117    -0.15600
C428        C  0.40175485  0.30118216  0.86042339    -0.29500
C429        C  0.47047963  0.43560695  0.89723057    -0.03800
C430        C  0.50062852  0.45832289  0.89531294    -0.40300
H431        H  0.40890756  0.39377188  0.89044404     0.12500
H432        H  0.39064136  0.34339002  0.87914089     0.12100
H433        H  0.49121742  0.35761489  0.87734780     0.11500
H434        H  0.50939463  0.40764521  0.88919236     0.11800
H435        H  0.44654136  0.30676214  0.87112310     0.14500
H436        H  0.38552892  0.31116959  0.85790279     0.13300
H437        H  0.45213888  0.43975326  0.90403467     0.11000
H438        H  0.02394361  0.45781003  0.88606753     0.13000
C439        C  0.14354300  0.08211718  0.88867621     0.19100
C440        C  0.17112325  0.07700920  0.88662073    -0.19000
C441        C  0.19848020  0.09685617  0.87754456    -0.11300
C442        C  0.19896319  0.12249197  0.87019775     0.21300
C443        C  0.17172639  0.12807288  0.87266954    -0.20600
C444        C  0.14432111  0.10819496  0.88183690    -0.11500
C445        C  0.22551040  0.14179273  0.85833927    -0.15600
C446        C  0.25516099  0.14210020  0.85758025    -0.29500
C447        C  0.11336502  0.05801451  0.89612849    -0.03800
C448        C  0.08793715  0.06171478  0.90244147    -0.40300
H449        H  0.17105669  0.05694148  0.89154950     0.12500
H450        H  0.21828800  0.09099426  0.87561401     0.12100
H451        H  0.17118890  0.14739338  0.86699032     0.11500
H452        H  0.12328157  0.11261701  0.88275695     0.11800
H453        H  0.21967315  0.15494827  0.84923744     0.14500
H454        H  0.26197460  0.13002748  0.86692319     0.13300
H455        H  0.11195747  0.03589631  0.89610935     0.11000
H456        H  0.08987948  0.08390413  0.90396133     0.13000
C457        C  0.44940317  0.07033969  0.88684190     0.19100
C458        C  0.42572332  0.06245865  0.87368248    -0.19000
C459        C  0.41514549  0.08284113  0.86775008    -0.11300
C460        C  0.42782430  0.11167663  0.87501112     0.21300
C461        C  0.45130448  0.11951097  0.88825974    -0.20600
C462        C  0.46187207  0.09911714  0.89420634    -0.11500
C463        C  0.41840031  0.13462134  0.86873827    -0.15600
C464        C  0.39125696  0.12851457  0.85928741    -0.29500
C465        C  0.46016417  0.04780229  0.89233993    -0.03800
C466        C  0.48756631  0.05421913  0.90165064    -0.40300
H467        H  0.41570552  0.04051377  0.86773576     0.12500
H468        H  0.39766879  0.07599446  0.85722979     0.12100
H469        H  0.46149801  0.14155231  0.89409142     0.11500
H470        H  0.47951461  0.10609884  0.90464227     0.11800
H471        H  0.43443653  0.15764696  0.87230509     0.14500
H472        H  0.37395719  0.10568332  0.85620049     0.13300
H473        H  0.44518913  0.02508889  0.88795707     0.11000
H474        H  0.50295215  0.07684020  0.90599751     0.13000
C475        C  0.25906988  0.27920893  0.78993677     0.19100
C476        C  0.22514422  0.27004595  0.78831162    -0.19000
C477        C  0.21317610  0.28937526  0.78216341    -0.11300
C478        C  0.23498815  0.31846948  0.77732340     0.21300
C479        C  0.26892070  0.32764595  0.77895799    -0.20600
C480        C  0.28088753  0.30832905  0.78512345    -0.11500
C481        C  0.22387530  0.34048012  0.77118851    -0.15600
C482        C  0.19280417  0.33421519  0.76652823    -0.29500
C483        C  0.27017148  0.25730625  0.79629905    -0.03800
C484        C  0.30107498  0.26383579  0.80138727    -0.40300
H485        H  0.20769639  0.24777657  0.79193379     0.12500
H486        H  0.18690277  0.28143677  0.78149238     0.12100
H487        H  0.28637510  0.34995004  0.77539323     0.11500
H488        H  0.30716312  0.31632110  0.78585324     0.11800
H489        H  0.24290987  0.36320858  0.77016756     0.14500
H490        H  0.17374137  0.31141156  0.76612042     0.13300
H491        H  0.25137029  0.23438544  0.79718451     0.11000
H492        H  0.32036071  0.28655302  0.80127580     0.13000
C493        C  0.04338418  0.30751912  0.76949318     0.19100
C494        C  0.02759768  0.27659633  0.77184004    -0.19000
C495        C  0.49583043  0.26589622  0.77933223    -0.11300
C496        C  0.48158133  0.28332593  0.78622189     0.21300
C497        C  0.49804279  0.31429732  0.78428184    -0.20600
C498        C  0.02634977  0.32404165  0.77386750    -0.11500
C499        C  0.45069144  0.27008385  0.79632274    -0.15600
C500        C  0.44285456  0.24584432  0.80593846    -0.29500
C501        C  0.07758099  0.32171621  0.76267275    -0.03800
C502        C  0.09888072  0.35033616  0.76607227    -0.40300
H503        H  0.03969233  0.26316801  0.76821938     0.12500
H504        H  0.48330697  0.24185727  0.77997157     0.12100
H505        H  0.48738703  0.32821210  0.78917713     0.11500
H506        H  0.03686419  0.34768406  0.77155198     0.11800
H507        H  0.43657504  0.28253206  0.79768237     0.14500
H508        H  0.45881333  0.23509462  0.80592222     0.13300
H509        H  0.08573601  0.30765946  0.75555902     0.11000
H510        H  0.09084604  0.36376234  0.77389891     0.13000
C511        C  0.28044224  0.04204866  0.79354742     0.19100
C512        C  0.28435429  0.52807067  0.78103523    -0.19000
C513        C  0.26409000  0.49900513  0.77512975    -0.11300
C514        C  0.23474816  0.48107662  0.78369312     0.21300
C515        C  0.22633551  0.49256000  0.79832070    -0.20600
C516        C  0.24618222  0.52170136  0.80399746    -0.11500
C517        C  0.21337661  0.44977845  0.77838911    -0.15600
C518        C  0.20888879  0.44003604  0.76195338    -0.29500
C519        C  0.29886785  0.07394998  0.79861185    -0.03800
C520        C  0.28265660  0.08908003  0.80396655    -0.40300
H521        H  0.30674412  0.54160133  0.77422668     0.12500
H522        H  0.27167467  0.49043477  0.76409116     0.12100
H523        H  0.20412670  0.47901688  0.80527497     0.11500
H524        H  0.25042339  0.02909930  0.81635058     0.11800
H525        H  0.20000189  0.43416704  0.78839806     0.14500
H526        H  0.22065746  0.45559428  0.75168155     0.13300
H527        H  0.32522676  0.08549817  0.79668640     0.11000
H528        H  0.25597894  0.07765219  0.80424404     0.13000
O529        O  0.40583647  0.68074920  0.85339980    -0.80500
O530        O  0.34503739  0.74794752  0.80910906    -0.65200
O531        O  0.36087099  0.70306897  0.84407014    -1.11800
C532        C  0.29780911  0.62026181  0.80958587     1.06400
O533        O  0.29250576  0.71518208  0.80609317    -0.78400
O534        O  0.27388511  0.67280212  0.83062031    -0.66000
Ni535      Ni  0.40232687  0.71752670  0.85571755     1.34900
C536        C  0.27938299  0.65896374  0.84275235     0.85100
O537        O  0.37245349  0.76272570  0.83999834    -0.79000
O538        O  0.40347567  0.75580500  0.86008840    -0.89200
C539        C  0.31595678  0.74114157  0.80412387     0.84700
O540        O  0.42840932  0.73147077  0.83576880    -0.67400
O541        O  0.28139479  0.63480747  0.80752643    -0.86700
C542        C  0.42364063  0.73838665  0.82076906     0.85500
C543        C  0.39131339  0.77140408  0.85306555     1.07100
H544        H  0.34753137  0.69147633  0.80367004     0.38900
O545        O  0.33505670  0.68996477  0.81395390    -1.09400
O546        O  0.30359586  0.65296178  0.84275889    -0.66000
Ni547      Ni  0.34438208  0.66705432  0.83047174     1.26300
O548        O  0.39644847  0.73735720  0.81568682    -0.66300
O549        O  0.32648076  0.63167471  0.81627470    -0.78600
C550        C  0.38439628  0.65358058  0.85289423     0.84900
O551        O  0.35575438  0.64555966  0.84697414    -0.65700
Ni552      Ni  0.28976887  0.67591080  0.80764213     1.27400
Ni553      Ni  0.35437070  0.72659413  0.82670328     1.26100
H554        H  0.34531801  0.70076485  0.85301766     0.39400
C555        C  0.19369304  0.90892184  0.75611848     0.86900
C556        C  0.18995299  0.90218460  0.73673546    -0.53400
C557        C  0.17145486  0.87262432  0.73261540     0.09800
C558        C  0.15839557  0.85268724  0.74852287     0.20700
C559        C  0.15845706  0.89610992  0.76272570    -0.54100
C560        C  0.13966769  0.86662925  0.75890723     0.09900
C561        C  0.20762433  0.88875717  0.76329120    -0.53600
C562        C  0.18954432  0.85918094  0.75925082     0.10500
H563        H  0.20092511  0.91956836  0.72734027     0.15000
H564        H  0.14365143  0.82878507  0.74514367     0.00700
H565        H  0.14913501  0.90938492  0.76981491     0.15300
H566        H  0.22999876  0.89775847  0.77091071     0.15100
C567        C  0.50715096  0.98713229  0.90433953     0.86900
C568        C  0.48791900  0.00400715  0.89876698    -0.53400
C569        C  0.49987563  0.53202554  0.90441565     0.09800
C570        C  0.03238881  0.54179332  0.91730429     0.20700
C571        C  0.04515256  0.00816272  0.89996881    -0.54100
C572        C  0.05994693  0.53995975  0.90681442     0.09900
C573        C  0.50622699  0.98707236  0.92397952    -0.53600
C574        C  0.01958233  0.01438570  0.93158505     0.10500
H575        H  0.46798559  0.99476477  0.88947038     0.15000
H576        H  0.03995177  0.56385141  0.92364592     0.00700
H577        H  0.05945101  0.00203827  0.89109170     0.15300
H578        H  0.49794879  0.96666854  0.93116228     0.15100
O579        O  0.09356136  0.50883665  0.47712382    -0.80500
O580        O  0.46736234  0.94625644  0.52167173    -0.65200
O581        O  0.03054818  0.99056914  0.48694588    -1.11800
C582        C  0.05669237  0.57028481  0.52587423     1.06400
O583        O  0.45082109  0.98114392  0.52558429    -0.78400
O584        O  0.48145583  0.53202745  0.50598063    -0.66000
Ni585      Ni  0.05626793  0.97267535  0.47707967     1.34900
C586        C  0.49841286  0.54249195  0.49257660     0.85100
O587        O  0.47865624  0.93089917  0.49089039    -0.79000
O588        O  0.02036754  0.93273269  0.47694243    -0.89200
C589        C  0.44614831  0.95424185  0.52669062     0.84700
O590        O  0.07126004  0.96677953  0.49887030    -0.67400
O591        O  0.02721552  0.55705237  0.53129368    -0.86700
C592        C  0.05390633  0.95392363  0.51179989     0.85500
C593        C  0.49131402  0.91912499  0.48075018     1.07100
H594        H  0.02858172  0.49938002  0.52744129     0.38900
O595        O  0.01674103  0.50230561  0.51793569    -1.09400
O596        O  0.02159373  0.53975453  0.48978426    -0.66000
Ni597      Ni  0.04796087  0.52396936  0.50088251     1.26300
O598        O  0.02463894  0.95041399  0.51379436    -0.66300
O599        O  0.06847024  0.55910030  0.51478185    -0.78600
C600        C  0.09885206  0.53595213  0.47708730     0.84900
O601        O  0.07909769  0.54435411  0.48366956    -0.65700
Ni602      Ni  0.49246156  0.51926796  0.52701457     1.27400
Ni603      Ni  0.49862235  0.96646263  0.50443369     1.26100
H604        H  0.01974758  0.99547637  0.47770880     0.39400
C605        C  0.38650864  0.70474660  0.42486777     0.86900
C606        C  0.35033054  0.68818793  0.43027769    -0.53400
C607        C  0.33549287  0.65858978  0.42562288     0.09800
C608        C  0.35829155  0.64875940  0.41581264     0.20700
C609        C  0.40298515  0.68680649  0.43251521    -0.54100
C610        C  0.38809526  0.65728156  0.42786268     0.09900
C611        C  0.38605667  0.69940619  0.40543746    -0.53600
C612        C  0.37102774  0.67007540  0.40054388     0.10500
H613        H  0.33813283  0.69912960  0.43720703     0.15000
H614        H  0.34630861  0.62483701  0.41195206     0.00700
H615        H  0.42362786  0.69655965  0.44138958     0.15300
H616        H  0.39723249  0.71754404  0.39649919     0.15100
C617        C  0.15870841  0.78689387  0.57871745     0.86900
C618        C  0.14153055  0.80122996  0.56802769    -0.53400
C619        C  0.15427349  0.83125806  0.57032340     0.09800
C620        C  0.18323188  0.84427692  0.58318213     0.20700
C621        C  0.19514983  0.80371853  0.57396650    -0.54100
C622        C  0.20811666  0.83399969  0.57619226     0.09900
C623        C  0.15710230  0.79648023  0.59733246    -0.53600
C624        C  0.16995859  0.82664949  0.59977214     0.10500
H625        H  0.12131896  0.78874155  0.55920518     0.15000
H626        H  0.19386005  0.86878330  0.58503899     0.00700
H627        H  0.20890868  0.79235954  0.56927031     0.15300
H628        H  0.14742256  0.78054620  0.60759541     0.15100
O629        O  0.21975870  0.79920034  0.19178202    -0.80500
O630        O  0.15414133  0.86420261  0.14821077    -0.65200
O631        O  0.17390768  0.81980413  0.18147330    -1.11800
C632        C  0.12260160  0.73976363  0.14176860     1.06400
O633        O  0.10449446  0.82897067  0.14125942    -0.78400
O634        O  0.08486175  0.78092695  0.16157766    -0.66000
Ni635      Ni  0.21778869  0.83684552  0.19094916     1.34900
C636        C  0.09054764  0.76990784  0.17501442     0.85100
O637        O  0.17726072  0.87634535  0.17974965    -0.79000
O638        O  0.22135697  0.87672829  0.19247822    -0.89200
C639        C  0.12590448  0.85613884  0.14183820     0.84700
O640        O  0.23944178  0.84508492  0.16928872    -0.67400
O641        O  0.10554039  0.75290940  0.13747026    -0.86700
C642        C  0.23379636  0.85742523  0.15641933     0.85500
C643        C  0.20310808  0.88904788  0.18883051     1.07100
H644        H  0.16639697  0.81219601  0.14115177     0.38900
O645        O  0.15110005  0.80812324  0.15047421    -1.09400
O646        O  0.11746240  0.76875400  0.17774010    -0.66000
Ni647      Ni  0.16016495  0.78505110  0.16706350     1.26300
O648        O  0.20721402  0.85946750  0.15444539    -0.66300
O649        O  0.14670639  0.75099774  0.15220309    -0.78600
C650        C  0.19843016  0.77195870  0.19105080     0.84900
O651        O  0.17075703  0.76349926  0.18378752    -0.65700
Ni652      Ni  0.10775749  0.79189463  0.14043517     1.27400
Ni653      Ni  0.16446495  0.84260418  0.16492029     1.26100
H654        H  0.15893106  0.81586468  0.19093814     0.39400
C655        C  0.99801195  0.52248896  0.09136656     0.86900
C656        C  0.99885024  0.52239729  0.07173191    -0.53400
C657        C  0.98825644  0.49467177  0.06440550     0.09800
C658        C  0.48063290  0.97043597  0.08012178     0.20700
C659        C  0.46126535  0.50062888  0.09694786    -0.54100
C660        C  0.45609327  0.97436094  0.09218300     0.09900
C661        C  0.01789378  0.50626520  0.09695021    -0.53600
C662        C  0.01056779  0.97902310  0.09249681     0.10500
H663        H  0.00674453  0.54271698  0.06450622     0.15000
H664        H  0.47095410  0.94776038  0.07429351     0.00700
H665        H  0.44724697  0.50678139  0.10600297     0.15300
H666        H  0.03863651  0.51629114  0.10573007     0.15100
C667        C  0.31866946  0.60496049  0.24366210     0.86900
C668        C  0.30025140  0.62294947  0.23891087    -0.53400
C669        C  0.31798992  0.65300025  0.24195840     0.09800
C670        C  0.35238115  0.66189425  0.24969259     0.20700
C671        C  0.35094586  0.61942405  0.23376635    -0.54100
C672        C  0.36871093  0.64925259  0.23679285     0.09900
C673        C  0.32837813  0.61286767  0.26255071    -0.53600
C674        C  0.34604184  0.64273696  0.26587296     0.10500
H675        H  0.27585942  0.61251804  0.23325332     0.15000
H676        H  0.36653741  0.68617994  0.25225955     0.00700
H677        H  0.35862205  0.60720402  0.22473036     0.15300
H678        H  0.32045245  0.59606135  0.27239439     0.15100
C679        C  0.31697118  0.89363814  0.13319861     0.19100
C680        C  0.34448259  0.88829415  0.13145852    -0.19000
C681        C  0.37110965  0.90679752  0.12134752    -0.11300
C682        C  0.37082412  0.93129978  0.11295688     0.21300
C683        C  0.34327217  0.93652649  0.11468074    -0.20600
C684        C  0.31664708  0.91796586  0.12463207    -0.11500
C685        C  0.40007208  0.95400593  0.10414561    -0.15600
C686        C  0.42475650  0.94927510  0.09774878    -0.29500
C687        C  0.29021797  0.87514259  0.14507066    -0.03800
C688        C  0.25926108  0.87144105  0.14328450    -0.40300
H689        H  0.34558794  0.87003664  0.13817155     0.12500
H690        H  0.39234406  0.90260794  0.12076540     0.12100
H691        H  0.34270900  0.95558932  0.10865927     0.11500
H692        H  0.29654166  0.92358764  0.12614508     0.11800
H693        H  0.40154970  0.97609442  0.10321855     0.14500
H694        H  0.42267388  0.92694358  0.09708110     0.13300
H695        H  0.29642902  0.86495253  0.15579520     0.11000
H696        H  0.25258806  0.88054625  0.13222718     0.13000
C697        C  0.07504296  0.66370347  0.11842239     0.19100
C698        C  0.04172559  0.64670674  0.11419678    -0.19000
C699        C  0.03017167  0.61787023  0.10743779    -0.11300
C700        C  0.05179734  0.60533032  0.10468982     0.21300
C701        C  0.08527066  0.62253468  0.10850072    -0.20600
C702        C  0.09683678  0.65139360  0.11537325    -0.11500
C703        C  0.04033290  0.57487762  0.09729021    -0.15600
C704        C  0.00959448  0.55313819  0.09934513    -0.29500
C705        C  0.08593327  0.69439847  0.12538689    -0.03800
C706        C  0.11384296  0.70978384  0.13448809    -0.40300
H707        H  0.02448988  0.65578904  0.11613974     0.12500
H708        H  0.00442096  0.60576666  0.10406158     0.12100
H709        H  0.10250502  0.61355952  0.10621562     0.11500
H710        H  0.12284999  0.66405620  0.11793701     0.11800
H711        H  0.05788645  0.56985557  0.09032080     0.14500
H712        H  0.99232756  0.55735618  0.10706624     0.13300
H713        H  0.06933561  0.70426797  0.12354586     0.11000
H714        H  0.13000313  0.69987524  0.13736002     0.08200
C715        C  0.07766297  0.89688840  0.12456448     0.19100
C716        C  0.04697039  0.88754493  0.11651365    -0.19000
C717        C  0.03615525  0.90820899  0.11144442    -0.11300
C718        C  0.05596693  0.93887681  0.11426301     0.21300
C719        C  0.08635637  0.94823931  0.12261257    -0.20600
C720        C  0.09719520  0.92758246  0.12769083    -0.11500
C721        C  0.04516366  0.96158770  0.10943426    -0.15600
C722        C  0.02308825  0.95727239  0.09684392    -0.29500
C723        C  0.08742836  0.87374364  0.13007692    -0.03800
C724        C  0.11775753  0.87958275  0.13555390    -0.40300
H725        H  0.03112159  0.86407065  0.11422784     0.12500
H726        H  0.01198978  0.89993790  0.10569090     0.12100
H727        H  0.10181164  0.97168708  0.12522948     0.11500
H728        H  0.12054228  0.93596117  0.13431231     0.11800
H729        H  0.04652358  0.47929241  0.11613417     0.14500
H730        H  0.01291150  0.93660987  0.08946461     0.13300
H731        H  0.06861297  0.85073106  0.12963445     0.11000
H732        H  0.13738984  0.90212852  0.13578689     0.13000
C733        C  0.26634177  0.69190782  0.22557991     0.19100
C734        C  0.23704104  0.68187409  0.21603192    -0.19000
C735        C  0.22647376  0.70193787  0.20957390    -0.11300
C736        C  0.24489336  0.73274592  0.21268299     0.21300
C737        C  0.27394302  0.74275791  0.22245378    -0.20600
C738        C  0.28452775  0.72267623  0.22891018    -0.11500
C739        C  0.23559981  0.75530243  0.20554701    -0.15600
C740        C  0.20609348  0.74888005  0.19850413    -0.29500
C741        C  0.27677896  0.66939713  0.23155656    -0.03800
C742        C  0.30714425  0.67591339  0.23743950    -0.40300
H743        H  0.22247929  0.65834057  0.21325545     0.12500
H744        H  0.20430253  0.69303407  0.20186823     0.12100
H745        H  0.28861827  0.76631826  0.22510097     0.11500
H746        H  0.30681183  0.73154528  0.23652717     0.11800
H747        H  0.25407480  0.77843196  0.20618254     0.14500
H748        H  0.18674866  0.72620002  0.19805165     0.13300
H749        H  0.25866092  0.64630178  0.23036110     0.11000
H750        H  0.32562869  0.69886314  0.23856193     0.13000
C751        C  0.27362053  0.52785561  0.22081300     0.19100
C752        C  0.25046624  0.51606624  0.20745400    -0.19000
C753        C  0.23761188  0.48597037  0.20272796    -0.11300
C754        C  0.24951248  0.96704782  0.21019071     0.21300
C755        C  0.27126706  0.47896070  0.22453519    -0.20600
C756        C  0.28387217  0.50897711  0.22935812    -0.11500
C757        C  0.23886544  0.93547516  0.20490325    -0.15600
C758        C  0.21248766  0.91987340  0.19479682    -0.29500
C759        C  0.28863325  0.56028872  0.22465665    -0.03800
C760        C  0.29979240  0.57179987  0.24037782    -0.40300
H761        H  0.24261189  0.53029393  0.20050761     0.12500
H762        H  0.22875444  0.97933135  0.18831115     0.12100
H763        H  0.28009875  0.46506369  0.23108504     0.11500
H764        H  0.30251121  0.51754594  0.23934106     0.11800
H765        H  0.25296536  0.92457003  0.20976719     0.14500
H766        H  0.19713475  0.92993359  0.19058754     0.13300
H767        H  0.29085521  0.57522425  0.21422537     0.11000
H768        H  0.29601351  0.55695583  0.25106103     0.13000
C769        C  0.45074051  0.71097688  0.22042716     0.19100
C770        C  0.98296993  0.72729551  0.22547112    -0.19000
C771        C  0.01005192  0.74089111  0.21461620    -0.11300
C772        C  0.00583034  0.73770090  0.19665872     0.21300
C773        C  0.97414668  0.72129703  0.18982252    -0.20600
C774        C  0.44658901  0.71184904  0.20258627    -0.11500
C775        C  0.03342707  0.75190429  0.18454261    -0.15600
C776        C  0.06455323  0.75741431  0.18807833    -0.29500
C777        C  0.42221837  0.69384966  0.23161987    -0.03800
C778        C  0.39845316  0.66710712  0.22661802    -0.40300
H779        H  0.98666434  0.72983245  0.23925763     0.12500
H780        H  0.03406004  0.75414786  0.22027590     0.12100
H781        H  0.97018721  0.71890515  0.17604417     0.11500
H782        H  0.42241065  0.70061068  0.19674400     0.11800
H783        H  0.02734456  0.75630929  0.17172268     0.14500
H784        H  0.07075934  0.75125863  0.20038074     0.13300
H785        H  0.42162933  0.70264609  0.24434606     0.11000
H786        H  0.40113381  0.65737430  0.21454420     0.13000
C787        C  0.36090449  0.65061234  0.31532022     0.19100
C788        C  0.36618821  0.63320242  0.32776307    -0.19000
C789        C  0.36958632  0.64142658  0.34514988    -0.11300
C790        C  0.36741112  0.66723740  0.35054476     0.21300
C791        C  0.36253847  0.68486976  0.33809043    -0.20600
C792        C  0.35910294  0.67662717  0.32069149    -0.11500
C793        C  0.37099313  0.67711569  0.36885873    -0.15600
C794        C  0.36723084  0.65930383  0.38237431    -0.29500
C795        C  0.35535823  0.63963468  0.29718365    -0.03800
C796        C  0.35555729  0.65589434  0.28347601    -0.40300
H797        H  0.36763438  0.61302468  0.32401616     0.12500
H798        H  0.37425287  0.62763753  0.35420230     0.12100
H799        H  0.36089597  0.70494436  0.34186967     0.11500
H800        H  0.35432012  0.69037581  0.31166498     0.11800
H801        H  0.37568709  0.69998220  0.37117366     0.14500
H802        H  0.35993098  0.63581261  0.38031011     0.13300
H803        H  0.35087793  0.61675527  0.29516156     0.11000
H804        H  0.36251159  0.67942310  0.28497738     0.13000
C805        C  0.18603090  0.57688278  0.45757813     0.19100
C806        C  0.20810819  0.56760645  0.45033904    -0.19000
C807        C  0.23883818  0.58834339  0.44449545    -0.11300
C808        C  0.24829545  0.61910262  0.44567190     0.21300
C809        C  0.22627165  0.62841971  0.45291449    -0.20600
C810        C  0.19554661  0.60768433  0.45879048    -0.11500
C811        C  0.28146663  0.64212473  0.44052352    -0.15600
C812        C  0.30128467  0.63662134  0.42978614    -0.29500
C813        C  0.15424037  0.55370785  0.46431673    -0.03800
C814        C  0.12934044  0.55910969  0.46963244    -0.40300
H815        H  0.20174709  0.54412892  0.44941194     0.12500
H816        H  0.25529656  0.58002655  0.43957335     0.12100
H817        H  0.23300934  0.65193635  0.45420495     0.11500
H818        H  0.17995601  0.61619357  0.46458458     0.11800
H819        H  0.28968394  0.66430642  0.44595179     0.14500
H820        H  0.29275187  0.61472339  0.42393350     0.13300
H821        H  0.15133546  0.53109345  0.46504872     0.11000
H822        H  0.13107132  0.58123701  0.46885887     0.13000
C823        C  0.42550678  0.77991948  0.45043549     0.19100
C824        C  0.41730283  0.79092124  0.46534378    -0.19000
C825        C  0.43475679  0.82101241  0.47010405    -0.11300
C826        C  0.46107649  0.84071664  0.46006998     0.21300
C827        C  0.46969919  0.82951453  0.44538149    -0.20600
C828        C  0.45213173  0.79952461  0.44056894    -0.11500
C829        C  0.48126676  0.87256971  0.46499538    -0.15600
C830        C  0.47025708  0.88808876  0.47501230    -0.29500
C831        C  0.40692830  0.74773782  0.44587975    -0.03800
C832        C  0.40351485  0.73753698  0.42958489    -0.40300
H833        H  0.39731195  0.77617464  0.47333173     0.12500
H834        H  0.42805158  0.82847223  0.48186203     0.12100
H835        H  0.49023241  0.84402736  0.43761536     0.11500
H836        H  0.46003993  0.79167732  0.42935407     0.11800
H837        H  0.00520755  0.88530141  0.46028332     0.14500
H838        H  0.44511043  0.87770538  0.47948726     0.13300
H839        H  0.39530348  0.73202814  0.45611702     0.11000
H840        H  0.41348396  0.75331356  0.41923641     0.13000
C841        C  0.43430105  0.61923555  0.45120073     0.19100
C842        C  0.46737683  0.62553245  0.45331361    -0.19000
C843        C  0.47611989  0.60663632  0.46275058    -0.11300
C844        C  0.45188004  0.58103347  0.47046214     0.21300
C845        C  0.41881983  0.57482284  0.46845087    -0.20600
C846        C  0.41004150  0.59354877  0.45885089    -0.11500
C847        C  0.46042702  0.56183569  0.48178558    -0.15600
C848        C  0.48789477  0.55839965  0.47996102    -0.29500
C849        C  0.42632217  0.64122792  0.44226717    -0.03800
C850        C  0.39683564  0.63449391  0.43509520    -0.40300
H851        H  0.48660134  0.64543058  0.44784668     0.12500
H852        H  0.50191707  0.61276040  0.46449308     0.12100
H853        H  0.39971097  0.55556767  0.47451237     0.11500
H854        H  0.38436353  0.58838319  0.45802366     0.11800
H855        H  0.44352518  0.55029018  0.49204424     0.14500
H856        H  0.50408335  0.56863253  0.46923809     0.13300
H857        H  0.44574391  0.66387010  0.44151666     0.11000
H858        H  0.37814369  0.61151262  0.43442535     0.13000
C859        C  0.29767168  0.87160635  0.55890851     0.19100
C860        C  0.31378524  0.86432073  0.54568555    -0.19000
C861        C  0.34467063  0.88511178  0.54002214    -0.11300
C862        C  0.36041398  0.91372224  0.54761878     0.21300
C863        C  0.34462049  0.92080940  0.56107470    -0.20600
C864        C  0.31377696  0.89998048  0.56678220    -0.11500
C865        C  0.39243376  0.93709071  0.54134221    -0.15600
C866        C  0.41467092  0.93091556  0.53317244    -0.29500
C867        C  0.26421283  0.84905379  0.56398696    -0.03800
C868        C  0.24239759  0.85597171  0.57209711    -0.40300
H869        H  0.30207866  0.84264160  0.53941405     0.12500
H870        H  0.35558635  0.87891694  0.52936657     0.12100
H871        H  0.35623424  0.94259355  0.56722345     0.11500
H872        H  0.30286967  0.90626327  0.57739595     0.11800
H873        H  0.39826044  0.96021401  0.54396541     0.14500
H874        H  0.41024350  0.90796671  0.53148303     0.13300
H875        H  0.25687553  0.82622637  0.55993611     0.11000
H876        H  0.24900424  0.87902212  0.57524550     0.13000
C877        C  0.12386350  0.70826468  0.55708518     0.19100
C878        C  0.12756214  0.69771482  0.54087072    -0.19000
C879        C  0.11037242  0.66750782  0.53650709    -0.11300
C880        C  0.08899828  0.64707259  0.54832772     0.21300
C881        C  0.08494524  0.65757143  0.56445809    -0.20600
C882        C  0.10219576  0.68778632  0.56885413    -0.11500
C883        C  0.06889974  0.61516362  0.54374864    -0.15600
C884        C  0.07839989  0.60077542  0.53207389    -0.29500
C885        C  0.14145843  0.74088465  0.56066892    -0.03800
C886        C  0.14379560  0.75350333  0.57627779    -0.40300
H887        H  0.14352206  0.71298963  0.53142614     0.12500
H888        H  0.11316306  0.66045657  0.52369160     0.12100
H889        H  0.06814871  0.64234891  0.57365411     0.11500
H890        H  0.09761636  0.69481771  0.58129016     0.11800
H891        H  0.04549050  0.60324819  0.55014283     0.14500
H892        H  0.10251837  0.61201332  0.52632968     0.13300
H893        H  0.15247168  0.75542611  0.54985544     0.11000
H894        H  0.13408085  0.73983502  0.58748504     0.13000
C895        C  0.10820772  0.92369761  0.53387757     0.19100
C896        C  0.12707950  0.91078264  0.52679535    -0.19000
C897        C  0.13866639  0.89495926  0.53706140    -0.11300
C898        C  0.13204507  0.89212686  0.55473156     0.21300
C899        C  0.11436904  0.90606784  0.56201910    -0.20600
C900        C  0.10221672  0.92150985  0.55166011    -0.11500
C901        C  0.14371374  0.87486653  0.56564333    -0.15600
C902        C  0.14236519  0.84899187  0.56005391    -0.29500
C903        C  0.09563408  0.93940392  0.52223123    -0.03800
C904        C  0.06760195  0.94148107  0.52489051    -0.40300
H905        H  0.13241048  0.91250696  0.51318668     0.12500
H906        H  0.15302030  0.88510419  0.53119491     0.12100
H907        H  0.10942489  0.90449206  0.57566655     0.11500
H908        H  0.08853136  0.93193027  0.55760899     0.11800
H909        H  0.15180176  0.88268246  0.57868707     0.14500
H910        H  0.13103306  0.83983170  0.54766473     0.13300
H911        H  0.10863898  0.94741636  0.51024788     0.11000
H912        H  0.05312273  0.93192857  0.53626060     0.13000
C913        C  0.00283125  0.00714369  0.01717487     0.19100
C914        C  0.00454671  0.02980337  0.00622081    -0.19000
C915        C  0.00753564  0.02755514  0.98844270    -0.11300
C916        C  0.00392333  0.50160407  0.97884691     0.21300
C917        C  0.47774003  0.47949159  0.98933655    -0.20600
C918        C  0.47701570  0.48193191  0.00724077    -0.11500
C919        C  0.50130409  0.49847205  0.96064846    -0.15600
C920        C  0.01946695  0.02002613  0.95048222    -0.29500
C921        C  0.00099617  0.01144924  0.03603479    -0.03800
C922        C  0.98707254  0.48884705  0.04551129    -0.40300
H923        H  0.00345203  0.04938731  0.01144631     0.12500
H924        H  0.00803295  0.04525739  0.98054714     0.12100
H925        H  0.45979898  0.45937707  0.98303538     0.11500
H926        H  0.45814771  0.46378575  0.01412224     0.11800
H927        H  0.48764231  0.47580421  0.95590411     0.14500
H928        H  0.02606097  0.04270848  0.95452142     0.13300
H929        H  0.00634953  0.03381088  0.04012840     0.11000
H930        H  0.47173823  0.46678137  0.04169550     0.13000
C931        C  0.17181479  0.86334768  0.68272136     0.19100
C932        C  0.19429980  0.87898273  0.66983257    -0.19000
C933        C  0.18981147  0.86796590  0.65292833    -0.11300
C934        C  0.16234047  0.84107330  0.64844655     0.21300
C935        C  0.13955553  0.82572140  0.66126201    -0.20600
C936        C  0.14404919  0.83673467  0.67816223    -0.11500
C937        C  0.15746792  0.82722740  0.63097363    -0.15600
C938        C  0.17310319  0.84172286  0.61675283    -0.29500
C939        C  0.17818851  0.87586358  0.70058628    -0.03800
C940        C  0.16414781  0.86003556  0.71475739    -0.40300
H941        H  0.21585236  0.89959373  0.67292434     0.12500
H942        H  0.20842026  0.88024720  0.64363287     0.12100
H943        H  0.11815662  0.80497235  0.65819881     0.11500
H944        H  0.12555117  0.82436047  0.68748583     0.11800
H945        H  0.13992021  0.80390452  0.62992132     0.14500
H946        H  0.18882774  0.86551254  0.61731650     0.13300
H947        H  0.19640348  0.89888898  0.70199941     0.11000
H948        H  0.14735608  0.83654718  0.71353619     0.13000
C949        C  0.45355321  0.90404818  0.89175313     0.19100
C950        C  0.42115467  0.88723469  0.88590090    -0.19000
C951        C  0.41066783  0.85818278  0.87950515    -0.11300
C952        C  0.43238163  0.84528129  0.87912176     0.21300
C953        C  0.46434548  0.86174832  0.88563432    -0.20600
C954        C  0.47492176  0.89085139  0.89178869    -0.11500
C955        C  0.42258134  0.81460607  0.87241531    -0.15600
C956        C  0.39927115  0.80127399  0.86026683    -0.29500
C957        C  0.46432080  0.93486743  0.89836530    -0.03800
C958        C  0.49519967  0.95639083  0.89641076    -0.40300
H959        H  0.40406553  0.89673663  0.88609196     0.12500
H960        H  0.38550368  0.84581048  0.87513604     0.12100
H961        H  0.48135483  0.85216015  0.88578556     0.11500
H962        H  0.49969451  0.90282297  0.89681134     0.11800
H963        H  0.43652113  0.80330150  0.87691306     0.14500
H964        H  0.38653551  0.81299342  0.85484033     0.13300
H965        H  0.44643017  0.94016396  0.90476394     0.11000
H966        H  0.01587381  0.95139231  0.88937816     0.13000
C967        C  0.14745568  0.58813492  0.88991480     0.19100
C968        C  0.17561111  0.58390221  0.88805623    -0.19000
C969        C  0.20181048  0.60306724  0.87808000    -0.11300
C970        C  0.20059876  0.62720468  0.86970090     0.21300
C971        C  0.17289961  0.63209009  0.87201468    -0.20600
C972        C  0.14660237  0.61286130  0.88207413    -0.11500
C973        C  0.22599087  0.64530449  0.85704096    -0.15600
C974        C  0.25653221  0.64764700  0.85726199    -0.29500
C975        C  0.11812743  0.56393362  0.89786814    -0.03800
C976        C  0.09139157  0.56649765  0.90305240    -0.40300
H977        H  0.17675135  0.56482581  0.89371992     0.12500
H978        H  0.22201280  0.59770080  0.87622827     0.12100
H979        H  0.17112341  0.65024702  0.86554141     0.11500
H980        H  0.12506125  0.61654515  0.88283277     0.11800
H981        H  0.21867899  0.65538935  0.84668000     0.14500
H982        H  0.26442353  0.63855065  0.86786047     0.13300
H983        H  0.11799214  0.54234479  0.89868689     0.11000
H984        H  0.09172427  0.58816217  0.90382532     0.13000
C985        C  0.45587275  0.57262685  0.88143836     0.19100
C986        C  0.43092718  0.56470830  0.86895406    -0.19000
C987        C  0.41949008  0.58501198  0.86388292    -0.11300
C988        C  0.43293839  0.61386477  0.87117204     0.21300
C989        C  0.45818462  0.62193825  0.88343042    -0.20600
C990        C  0.46954896  0.60166549  0.88853269    -0.11500
C991        C  0.42276055  0.63670816  0.86567387    -0.15600
C992        C  0.39321968  0.63020227  0.85869827    -0.29500
C993        C  0.46788712  0.55051522  0.88607578    -0.03800
C994        C  0.48591505  0.55281520  0.90028441    -0.40300
H995        H  0.42033520  0.54273744  0.86302094     0.12500
H996        H  0.40077009  0.57823610  0.85396544     0.12100
H997        H  0.46935584  0.64416840  0.88903107     0.11500
H998        H  0.48959346  0.60931066  0.89769569     0.11800
H999        H  0.44018274  0.65991918  0.86783180     0.14500
H1000       H  0.37481748  0.60720120  0.85724303     0.13300
H1001       H  0.46170319  0.53179401  0.87730683     0.11000
H1002       H  0.49197536  0.57121640  0.90923515     0.13000
C1003       C  0.26669479  0.77981915  0.78494211     0.19100
C1004       C  0.23566005  0.76916934  0.77698422    -0.19000
C1005       C  0.22304541  0.78869701  0.77204134    -0.11300
C1006       C  0.24124853  0.81952728  0.77503352     0.21300
C1007       C  0.27239890  0.83014173  0.78286113    -0.20600
C1008       C  0.28498172  0.81064078  0.78779751    -0.11500
C1009       C  0.22949243  0.84173928  0.77018099    -0.15600
C1010       C  0.19926207  0.83549776  0.76401254    -0.29500
C1011       C  0.27775770  0.75779814  0.79103196    -0.03800
C1012       C  0.30840926  0.76433523  0.79659872    -0.40300
H1013       H  0.22092268  0.74551221  0.77467802     0.12500
H1014       H  0.19916283  0.77938490  0.76591495     0.12100
H1015       H  0.28704707  0.85374880  0.78537521     0.11500
H1016       H  0.30862732  0.81989254  0.79418847     0.11800
H1017       H  0.24745538  0.86478338  0.77177897     0.14500
H1018       H  0.18106175  0.81264140  0.76194384     0.13300
H1019       H  0.25912044  0.73472789  0.79121449     0.11000
H1020       H  0.32806673  0.78684301  0.79604564     0.13000
C1021       C  0.05174456  0.80737200  0.77138644     0.19100
C1022       C  0.03904060  0.77810988  0.77737779    -0.19000
C1023       C  0.50822405  0.76294627  0.78471663    -0.11300
C1024       C  0.48917733  0.77838987  0.78642329     0.21300
C1025       C  0.50167637  0.80738709  0.78008661    -0.20600
C1026       C  0.03170109  0.82201555  0.77230975    -0.11500
C1027       C  0.45708710  0.76539840  0.79551260    -0.15600
C1028       C  0.45209414  0.74786818  0.80918225    -0.29500
C1029       C  0.08593040  0.82176452  0.76446003    -0.03800
C1030       C  0.10457460  0.85150041  0.76425153    -0.40300
H1031       H  0.05348387  0.76598375  0.77652492     0.12500
H1032       H  0.49894178  0.74018439  0.78893121     0.12100
H1033       H  0.48734715  0.81961355  0.78099539     0.11500
H1034       H  0.03983798  0.84409091  0.76721481     0.11800
H1035       H  0.43902596  0.77307284  0.79227595     0.14500
H1036       H  0.47159715  0.74258571  0.81330897     0.13300
H1037       H  0.09677778  0.80734160  0.76071071     0.11000
H1038       H  0.09448083  0.86584339  0.76921440     0.13000
C1039       C  0.27525692  0.53984754  0.79531611     0.19100
C1040       C  0.28691037  0.03186694  0.77785044    -0.19000
C1041       C  0.26762037  0.00239989  0.77228552    -0.11300
C1042       C  0.24185836  0.98246381  0.78252681     0.21300
C1043       C  0.23662219  0.99236367  0.79862742    -0.20600
C1044       C  0.25545833  0.02190511  0.80401880    -0.11500
C1045       C  0.22065023  0.95102487  0.77718057    -0.15600
C1046       C  0.21463091  0.94149920  0.76069249    -0.29500
C1047       C  0.29541979  0.57138575  0.80072088    -0.03800
C1048       C  0.28072347  0.58847590  0.80468177    -0.40300
H1049       H  0.30627233  0.04696539  0.76967043     0.12500
H1050       H  0.27315030  0.99529530  0.76007234     0.12100
H1051       H  0.21741303  0.97733870  0.80691564     0.11500
H1052       H  0.23886669  0.53004501  0.81524147     0.11800
H1053       H  0.20868419  0.93502363  0.78724885     0.14500
H1054       H  0.22505770  0.95720800  0.75035570     0.13300
H1055       H  0.32201857  0.58106989  0.80020490     0.11000
H1056       H  0.25415331  0.57891749  0.80350104     0.13000
O1057       O  0.90345932  0.17929170  0.85658087    -0.80500
O1058       O  0.83929255  0.24803425  0.81334325    -0.65200
O1059       O  0.85993112  0.20188320  0.84556652    -1.11800
C1060       C  0.79793531  0.12177359  0.80857934     1.06400
O1061       O  0.78734643  0.21427709  0.81019007    -0.78400
O1062       O  0.77129261  0.16935863  0.83255226    -0.66000
Ni1063     Ni  0.90417463  0.21779206  0.85437931     1.34900
C1064       C  0.77760338  0.15471258  0.84387429     0.85100
O1065       O  0.86693064  0.26015197  0.84404887    -0.79000
O1066       O  0.91149539  0.25887586  0.85476118    -0.89200
C1067       C  0.80995861  0.24071427  0.80872988     0.84700
O1068       O  0.92195892  0.22158475  0.83203000    -0.67400
O1069       O  0.78049241  0.13549722  0.80742627    -0.86700
C1070       C  0.91729849  0.23439251  0.81910599     0.85500
C1071       C  0.89391803  0.27217191  0.85214516     1.07100
H1072       H  0.84496537  0.19393915  0.80509654     0.38900
O1073       O  0.83254661  0.19078218  0.81556902    -1.09400
O1074       O  0.80305398  0.15045107  0.84336177    -0.66000
Ni1075     Ni  0.84375575  0.16711380  0.83063764     1.26300
O1076       O  0.89256080  0.23985493  0.81759018    -0.66300
O1077       O  0.82661871  0.13338574  0.81522289    -0.78600
C1078       C  0.88323517  0.15213429  0.85384505     0.84900
O1079       O  0.85671795  0.14427667  0.84545032    -0.65700
Ni1080     Ni  0.78693720  0.17586996  0.80955679     1.27400
Ni1081     Ni  0.85056711  0.22585515  0.82953579     1.26100
H1082       H  0.84559315  0.19824575  0.85529602     0.39400
C1083       C  0.68977265  0.40746748  0.75904052     0.86900
C1084       C  0.68568233  0.39952479  0.73981002    -0.53400
C1085       C  0.66681868  0.36977881  0.73629154     0.09800
C1086       C  0.65352562  0.35097346  0.75255727     0.20700
C1087       C  0.65473444  0.39556356  0.76578027    -0.54100
C1088       C  0.63546811  0.36601226  0.76248666     0.09900
C1089       C  0.70327960  0.38741594  0.76679958    -0.53600
C1090       C  0.68459719  0.35775193  0.76333845     0.10500
H1091       H  0.69667238  0.41625299  0.73005306     0.15000
H1092       H  0.63858383  0.32687840  0.74977453     0.00700
H1093       H  0.64592686  0.40945258  0.77264175     0.15300
H1094       H  0.72563920  0.39627163  0.77447242     0.15100
C1095       C  0.01499836  0.49024170  0.90240581     0.86900
C1096       C  0.99465883  0.50598793  0.89658934    -0.53400
C1097       C  0.00035514  0.03078614  0.90625144     0.09800
C1098       C  0.52902347  0.04005810  0.91815328     0.20700
C1099       C  0.54610051  0.51067675  0.89989613    -0.54100
C1100       C  0.55453036  0.03590358  0.90702563     0.09900
C1101       C  0.01202954  0.48866639  0.92199665    -0.53600
C1102       C  0.51662555  0.51543494  0.93046676     0.10500
H1103       H  0.97555911  0.49648924  0.88685733     0.15000
H1104       H  0.53842430  0.06268357  0.92402441     0.00700
H1105       H  0.56160493  0.50528343  0.89144994     0.15300
H1106       H  0.00403823  0.46788596  0.92876780     0.15100
O1107       O  0.59667962  0.00985361  0.47763064    -0.80500
O1108       O  0.96493215  0.44665862  0.52228289    -0.65200
O1109       O  0.52872478  0.48847811  0.48647723    -1.11800
C1110       C  0.55773096  0.07063842  0.52555436     1.06400
O1111       O  0.94886635  0.48194116  0.52563878    -0.78400
O1112       O  0.98129960  0.02774199  0.50557869    -0.66000
Ni1113     Ni  0.55523520  0.47090670  0.47718166     1.34900
C1114       C  0.00018324  0.04125501  0.49326889     0.85100
O1115       O  0.97512931  0.43074329  0.49124794    -0.79000
O1116       O  0.51868636  0.43146834  0.47612329    -0.89200
C1117       C  0.94399436  0.45504704  0.52724602     0.84700
O1118       O  0.56876738  0.46313797  0.49894706    -0.67400
O1119       O  0.52802574  0.05732112  0.53064040    -0.86700
C1120       C  0.55194590  0.45214027  0.51232748     0.85500
C1121       C  0.98781790  0.41853824  0.48141555     1.07100
H1122       H  0.53056500  0.99980464  0.52715362     0.38900
O1123       O  0.51866947  0.00248882  0.51759219    -1.09400
O1124       O  0.52296266  0.03947836  0.48931098    -0.66000
Ni1125     Ni  0.54997681  0.02447421  0.50061712     1.26300
O1126       O  0.52351783  0.45045265  0.51463546    -0.66300
O1127       O  0.56983040  0.05960908  0.51455012    -0.78600
C1128       C  0.60199378  0.03697524  0.47764137     0.84900
O1129       O  0.58152457  0.04513684  0.48357071    -0.65700
Ni1130     Ni  0.99450881  0.02002806  0.52751558     1.27400
Ni1131     Ni  0.99592719  0.46631909  0.50481250     1.26100
H1132       H  0.51743362  0.49223754  0.47701310     0.39400
C1133       C  0.88971542  0.20397442  0.42552623     0.86900
C1134       C  0.85372312  0.18729195  0.43113968    -0.53400
C1135       C  0.83896592  0.15769226  0.42659938     0.09800
C1136       C  0.86154085  0.14796407  0.41651058     0.20700
C1137       C  0.90651863  0.18619492  0.43300060    -0.54100
C1138       C  0.89170727  0.15665563  0.42832338     0.09900
C1139       C  0.88880499  0.19859572  0.40606117    -0.53600
C1140       C  0.87373567  0.16921801  0.40117294     0.10500
H1141       H  0.84147938  0.19818067  0.43808451     0.15000
H1142       H  0.84947514  0.12401290  0.41270937     0.00700
H1143       H  0.92735862  0.19612465  0.44173281     0.15300
H1144       H  0.89912141  0.21682477  0.39714737     0.15100
C1145       C  0.65836296  0.28556239  0.58151233     0.86900
C1146       C  0.63922854  0.29897775  0.57168225    -0.53400
C1147       C  0.65072840  0.32888394  0.57412451     0.09800
C1148       C  0.68056477  0.34269919  0.58647229     0.20700
C1149       C  0.69423017  0.30376634  0.57606091    -0.54100
C1150       C  0.70603133  0.33391376  0.57854753     0.09900
C1151       C  0.65766607  0.29448360  0.60033394    -0.53600
C1152       C  0.66924589  0.32448906  0.60308262     0.10500
H1153       H  0.61876839  0.28595738  0.56310858     0.15000
H1154       H  0.69023944  0.36706551  0.58856857     0.00700
H1155       H  0.70825850  0.29335952  0.57044330     0.15300
H1156       H  0.64945340  0.27821522  0.61046956     0.15100
O1157       O  0.72033149  0.30013240  0.19028982    -0.80500
O1158       O  0.65006692  0.36453393  0.14938459    -0.65200
O1159       O  0.67347771  0.32107985  0.18190127    -1.11800
C1160       C  0.62033604  0.24061022  0.14260427     1.06400
O1161       O  0.60025597  0.32877260  0.14322446    -0.78400
O1162       O  0.58185724  0.27991092  0.16288986    -0.66000
Ni1163     Ni  0.71836392  0.33792264  0.18986972     1.34900
C1164       C  0.58840516  0.27019180  0.17661828     0.85100
O1165       O  0.67661369  0.37739628  0.18035108    -0.79000
O1166       O  0.72188006  0.37773587  0.19170463    -0.89200
C1167       C  0.62144325  0.35602635  0.14332162     0.84700
O1168       O  0.73760789  0.34566092  0.16749466    -0.67400
O1169       O  0.60349012  0.25380518  0.13801246    -0.86700
C1170       C  0.73074189  0.35793640  0.15498163     0.85500
C1171       C  0.70326132  0.39001614  0.18881629     1.07100
H1172       H  0.66297882  0.31239262  0.14199630     0.38900
O1173       O  0.64808570  0.30856815  0.15148702    -1.09400
O1174       O  0.61600458  0.27030957  0.17947380    -0.66000
Ni1175     Ni  0.65810713  0.28583381  0.16798134     1.26300
O1176       O  0.70415061  0.36026529  0.15404613    -0.66300
O1177       O  0.64355211  0.25136289  0.15354221    -0.78600
C1178       C  0.69855724  0.27302915  0.19060856     0.84900
O1179       O  0.66989301  0.26473483  0.18457899    -0.65700
Ni1180     Ni  0.60453706  0.29217012  0.14172265     1.27400
Ni1181     Ni  0.66241524  0.34341242  0.16567925     1.26100
H1182       H  0.65964913  0.31760609  0.19183713     0.39400
C1183       C  0.50304612  0.02341110  0.09390041     0.86900
C1184       C  0.50186725  0.02329042  0.07426429    -0.53400
C1185       C  0.49056590  0.99557855  0.06683641     0.09800
C1186       C  0.97716960  0.46952675  0.07771011     0.20700
C1187       C  0.96631802  0.00230091  0.09792945    -0.54100
C1188       C  0.95130443  0.47326988  0.08879840     0.09900
C1189       C  0.52339146  0.00712475  0.09853684    -0.53600
C1190       C  0.50489987  0.47695531  0.09015545     0.10500
H1191       H  0.50919254  0.04363295  0.06713294     0.15000
H1192       H  0.96824324  0.44688187  0.07192761     0.00700
H1193       H  0.95195296  0.00852346  0.10671508     0.15300
H1194       H  0.54467233  0.01701066  0.10696343     0.15100
C1195       C  0.81764419  0.10440479  0.24329098     0.86900
C1196       C  0.79962012  0.12272928  0.23852083    -0.53400
C1197       C  0.81747042  0.15270248  0.24179475     0.09800
C1198       C  0.85154534  0.16112318  0.24993845     0.20700
C1199       C  0.85021080  0.11892101  0.23371274    -0.54100
C1200       C  0.86812980  0.14860036  0.23710878     0.09900
C1201       C  0.82697808  0.11168185  0.26224246    -0.53600
C1202       C  0.84447316  0.14142449  0.26598250     0.10500
H1203       H  0.77556711  0.11264869  0.23246414     0.15000
H1204       H  0.86587114  0.18532612  0.25271633     0.00700
H1205       H  0.85805217  0.10684865  0.22465710     0.15300
H1206       H  0.82038297  0.09427481  0.27163802     0.15100
C1207       C  0.81069901  0.39094199  0.12835120     0.19100
C1208       C  0.83725746  0.38454946  0.12545093    -0.19000
C1209       C  0.86378955  0.40316309  0.11529078    -0.11300
C1210       C  0.86440815  0.42882009  0.10790671     0.21300
C1211       C  0.83747135  0.43473833  0.11046269    -0.20600
C1212       C  0.81098326  0.41613569  0.12052594    -0.11500
C1213       C  0.89406134  0.45197363  0.09947253    -0.15600
C1214       C  0.91949206  0.44784541  0.09357453    -0.29500
C1215       C  0.78482970  0.37282161  0.14086386    -0.03800
C1216       C  0.75469014  0.37154022  0.14101858    -0.40300
H1217       H  0.83790801  0.36552699  0.13146696     0.12500
H1218       H  0.88434603  0.39812545  0.11400821     0.12100
H1219       H  0.83745508  0.45454235  0.10516735     0.11500
H1220       H  0.79167790  0.42255873  0.12280535     0.11800
H1221       H  0.89544104  0.47403909  0.09868837     0.14500
H1222       H  0.91777220  0.42565929  0.09279546     0.13300
H1223       H  0.79122458  0.36095645  0.15057702     0.11000
H1224       H  0.74749701  0.38209867  0.13090137     0.13000
C1225       C  0.57602789  0.16548210  0.11842452     0.19100
C1226       C  0.54271955  0.14697638  0.11504629    -0.19000
C1227       C  0.53237086  0.11807242  0.10869608    -0.11300
C1228       C  0.55523918  0.10702558  0.10553202     0.21300
C1229       C  0.58871827  0.12586971  0.10832334    -0.20600
C1230       C  0.59908680  0.15482034  0.11479894    -0.11500
C1231       C  0.54480106  0.07637684  0.09873372    -0.15600
C1232       C  0.51502718  0.05398659  0.10194795    -0.29500
C1233       C  0.58562663  0.19590112  0.12531835    -0.03800
C1234       C  0.61261086  0.21113709  0.13504052    -0.40300
H1235       H  0.52456477  0.15485833  0.11743731     0.12500
H1236       H  0.50649486  0.10468734  0.10600309     0.12100
H1237       H  0.60684131  0.11807984  0.10562087     0.11500
H1238       H  0.62510081  0.16885015  0.11668412     0.11800
H1239       H  0.56198120  0.07197093  0.09101213     0.14500
H1240       H  0.49846259  0.05785813  0.11043296     0.13300
H1241       H  0.56871025  0.20533835  0.12316740     0.11000
H1242       H  0.62872833  0.20130745  0.13823741     0.08200
C1243       C  0.57371735  0.39525384  0.12274818     0.19100
C1244       C  0.54636232  0.38604309  0.11169835    -0.19000
C1245       C  0.53571821  0.40641469  0.10567028    -0.11300
C1246       C  0.55225164  0.43669198  0.11061977     0.21300
C1247       C  0.57959277  0.44583728  0.12165979    -0.20600
C1248       C  0.59017789  0.42550269  0.12768913    -0.11500
C1249       C  0.54110745  0.45928393  0.10558835    -0.15600
C1250       C  0.51758484  0.45488027  0.09375877    -0.29500
C1251       C  0.58331672  0.37247348  0.12934804    -0.03800
C1252       C  0.61266635  0.37903384  0.13668914    -0.40300
H1253       H  0.53294806  0.36286331  0.10780313     0.12500
H1254       H  0.51416330  0.39801357  0.09750067     0.12100
H1255       H  0.59263169  0.46887156  0.12589492     0.11500
H1256       H  0.61072477  0.43363861  0.13655512     0.11800
H1257       H  0.56086640  0.98314261  0.11288764     0.14500
H1258       H  0.50609037  0.43403591  0.08662618     0.13300
H1259       H  0.56556633  0.34921636  0.12781565     0.11000
H1260       H  0.63141722  0.40193309  0.13769393     0.13000
C1261       C  0.76739997  0.19247630  0.22411001     0.19100
C1262       C  0.73382421  0.18475555  0.22246160    -0.19000
C1263       C  0.72338770  0.20504363  0.21608461    -0.11300
C1264       C  0.74641573  0.23361789  0.21096718     0.21300
C1265       C  0.77997993  0.24130643  0.21261055    -0.20600
C1266       C  0.79040982  0.22102070  0.21897724    -0.11500
C1267       C  0.73679570  0.25626788  0.20415110    -0.15600
C1268       C  0.70677254  0.24994777  0.19778502    -0.29500
C1269       C  0.77715741  0.16965663  0.23044115    -0.03800
C1270       C  0.80729173  0.17587871  0.23665539    -0.40300
H1271       H  0.71550405  0.16291080  0.22622823     0.12500
H1272       H  0.69731708  0.19826006  0.21544037     0.12100
H1273       H  0.79831247  0.26307265  0.20873976     0.11500
H1274       H  0.81647230  0.22770528  0.21950385     0.11800
H1275       H  0.75579924  0.27917902  0.20383974     0.14500
H1276       H  0.68763655  0.22715131  0.19733440     0.13300
H1277       H  0.75823953  0.14677718  0.23013688     0.11000
H1278       H  0.82571668  0.19884868  0.23801657     0.13000
C1279       C  0.77332508  0.02750280  0.22008528     0.19100
C1280       C  0.75250673  0.01615868  0.20575275    -0.19000
C1281       C  0.73994492  0.98609628  0.20101667    -0.11300
C1282       C  0.75116100  0.46737617  0.21009946     0.21300
C1283       C  0.76892614  0.97810867  0.22489856    -0.20600
C1284       C  0.78142922  0.00812892  0.22963183    -0.11500
C1285       C  0.73958861  0.43567505  0.20511299    -0.15600
C1286       C  0.71328859  0.42080206  0.19488346    -0.29500
C1287       C  0.78823125  0.05994606  0.22398242    -0.03800
C1288       C  0.79868370  0.07133226  0.23979849    -0.40300
H1289       H  0.74632592  0.03072025  0.19803784     0.12500
H1290       H  0.73550455  0.48051978  0.18669294     0.12100
H1291       H  0.77605286  0.96385204  0.23231575     0.11500
H1292       H  0.79836706  0.01621150  0.24039414     0.11800
H1293       H  0.75288341  0.42418085  0.21020996     0.14500
H1294       H  0.69863824  0.43156050  0.19063673     0.13300
H1295       H  0.79114054  0.07500473  0.21351105     0.11000
H1296       H  0.79422656  0.05642187  0.25050515     0.13000
C1297       C  0.95075232  0.20966780  0.22131197     0.19100
C1298       C  0.47948448  0.22474870  0.22696925    -0.19000
C1299       C  0.50709454  0.23880476  0.21646292    -0.11300
C1300       C  0.50337012  0.23864034  0.19849605     0.21300
C1301       C  0.47160187  0.22473185  0.19137369    -0.20600
C1302       C  0.94621405  0.21054028  0.20351089    -0.11500
C1303       C  0.53149796  0.25333796  0.18663467    -0.15600
C1304       C  0.56242956  0.25764121  0.18982450    -0.29500
C1305       C  0.92227023  0.19279689  0.23253595    -0.03800
C1306       C  0.89828341  0.16636670  0.22729803    -0.40300
H1307       H  0.48284190  0.22498463  0.24075674     0.12500
H1308       H  0.53113192  0.25003171  0.22242897     0.12100
H1309       H  0.46796614  0.22467299  0.17761270     0.11500
H1310       H  0.92186992  0.19978907  0.19782368     0.11800
H1311       H  0.52579813  0.25921452  0.17410883     0.14500
H1312       H  0.56843338  0.25052465  0.20186799     0.13300
H1313       H  0.92170628  0.20149666  0.24529524     0.11000
H1314       H  0.90104793  0.15676555  0.21519165     0.13000
C1315       C  0.85347824  0.14789813  0.31605967     0.19100
C1316       C  0.83745384  0.12778121  0.32927146    -0.19000
C1317       C  0.84426153  0.13634647  0.34654621    -0.11300
C1318       C  0.86757427  0.16537383  0.35109056     0.21300
C1319       C  0.88367118  0.18552285  0.33791716    -0.20600
C1320       C  0.87691989  0.17692798  0.32059916    -0.11500
C1321       C  0.87455175  0.17606782  0.36927664    -0.15600
C1322       C  0.86806252  0.15811251  0.38299423    -0.29500
C1323       C  0.84439637  0.13722552  0.29795246    -0.03800
C1324       C  0.85555403  0.15384226  0.28369019    -0.40300
H1325       H  0.81916290  0.10529313  0.32622741     0.12500
H1326       H  0.83054907  0.12033289  0.35619935     0.12100
H1327       H  0.90159962  0.20810390  0.34104623     0.11500
H1328       H  0.89008716  0.19318417  0.31097300     0.11800
H1329       H  0.88564527  0.19997127  0.37120230     0.14500
H1330       H  0.85771754  0.13421806  0.38107736     0.13300
H1331       H  0.82645365  0.11414216  0.29655277     0.11000
H1332       H  0.87244300  0.17730828  0.28474787     0.13000
C1333       C  0.69039135  0.07703929  0.45953560     0.19100
C1334       C  0.71126745  0.06727077  0.45135443    -0.19000
C1335       C  0.74252003  0.08759142  0.44592549    -0.11300
C1336       C  0.75370085  0.11838542  0.44851220     0.21300
C1337       C  0.73312465  0.12817501  0.45696190    -0.20600
C1338       C  0.70184389  0.10785400  0.46239101    -0.11500
C1339       C  0.78705724  0.14085233  0.44334534    -0.15600
C1340       C  0.80494089  0.13587742  0.43111313    -0.29500
C1341       C  0.65765939  0.05419062  0.46540619    -0.03800
C1342       C  0.63347603  0.06028222  0.47116334    -0.40300
H1343       H  0.70344318  0.04370750  0.44923803     0.12500
H1344       H  0.75796328  0.07891905  0.44008335     0.12100
H1345       H  0.74131222  0.15171730  0.45939629     0.11500
H1346       H  0.68723967  0.11657667  0.46904850     0.11800
H1347       H  0.79698311  0.16228763  0.44992698     0.14500
H1348       H  0.79498067  0.11464847  0.42432190     0.13300
H1349       H  0.65328370  0.03109748  0.46492833     0.11000
H1350       H  0.63654539  0.08291818  0.47142098     0.13000
C1351       C  0.92552859  0.27909610  0.45122617     0.19100
C1352       C  0.91511632  0.28989521  0.46546367    -0.19000
C1353       C  0.93155360  0.32004510  0.47032044    -0.11300
C1354       C  0.95905602  0.33996704  0.46108102     0.21300
C1355       C  0.96971838  0.32897451  0.44703949    -0.20600
C1356       C  0.95316138  0.29897304  0.44211510    -0.11500
C1357       C  0.97855569  0.37183232  0.46619978    -0.15600
C1358       C  0.96688652  0.38736137  0.47579165    -0.29500
C1359       C  0.90816413  0.24686707  0.44657854    -0.03800
C1360       C  0.90641383  0.23676093  0.43033193    -0.40300
H1361       H  0.89421358  0.27494295  0.47285499     0.12500
H1362       H  0.92315065  0.32736843  0.48155393     0.12100
H1363       H  0.99114209  0.34366270  0.43988569     0.11500
H1364       H  0.96263376  0.29130256  0.43144413     0.11800
H1365       H  0.50509988  0.38287608  0.46186629     0.14500
H1366       H  0.94152843  0.37699051  0.47992860     0.13300
H1367       H  0.89572249  0.23106965  0.45665993     0.11000
H1368       H  0.91702833  0.25262541  0.42007559     0.13000
C1369       C  0.93712995  0.11817039  0.45187161     0.19100
C1370       C  0.97010431  0.12469527  0.45462729    -0.19000
C1371       C  0.97835094  0.10519605  0.46374321    -0.11300
C1372       C  0.95366953  0.07873877  0.47046646     0.21300
C1373       C  0.92070827  0.07227599  0.46778909    -0.20600
C1374       C  0.91245061  0.09164610  0.45852445    -0.11500
C1375       C  0.96155369  0.05894188  0.48157941    -0.15600
C1376       C  0.98979721  0.05676276  0.48042475    -0.29500
C1377       C  0.92947857  0.14063967  0.44333459    -0.03800
C1378       C  0.90077980  0.13388221  0.43524915    -0.40300
H1379       H  0.98959481  0.14521810  0.44993455     0.12500
H1380       H  0.00405527  0.11154553  0.46605686     0.12100
H1381       H  0.90126723  0.05236059  0.47311179     0.11500
H1382       H  0.88678180  0.08628724  0.45719484     0.11800
H1383       H  0.94381258  0.04633056  0.49128615     0.14500
H1384       H  0.00700792  0.06823407  0.47028808     0.13300
H1385       H  0.94843965  0.16353767  0.44367886     0.11000
H1386       H  0.88285079  0.11075707  0.43363255     0.13000
C1387       C  0.79473453  0.37376862  0.55996861     0.19100
C1388       C  0.81995849  0.36558253  0.55710669    -0.19000
C1389       C  0.85032158  0.38595165  0.55062031    -0.11300
C1390       C  0.85619920  0.41518543  0.54660007     0.21300
C1391       C  0.83090776  0.42332785  0.54947838    -0.20600
C1392       C  0.80055799  0.40295319  0.55600687    -0.11500
C1393       C  0.88801658  0.43793460  0.53949023    -0.15600
C1394       C  0.91286470  0.43219513  0.53441862    -0.29500
C1395       C  0.76239587  0.35076164  0.56621021    -0.03800
C1396       C  0.73921819  0.35697012  0.57337566    -0.40300
H1397       H  0.81618416  0.34324005  0.55993610     0.12500
H1398       H  0.86884858  0.37842385  0.54892480     0.12100
H1399       H  0.83449868  0.44555065  0.54647772     0.11500
H1400       H  0.78163258  0.41008767  0.55750467     0.11800
H1401       H  0.89089197  0.46045043  0.53813058     0.14500
H1402       H  0.91069725  0.40992774  0.53521324     0.13300
H1403       H  0.75792684  0.32778368  0.56487356     0.11000
H1404       H  0.74424736  0.37995059  0.57552623     0.13000
C1405       C  0.62575457  0.20781594  0.55907989     0.19100
C1406       C  0.63441916  0.19695716  0.54427813    -0.19000
C1407       C  0.61731771  0.16693145  0.53943472    -0.11300
C1408       C  0.59085503  0.14696994  0.54929910     0.21300
C1409       C  0.58225374  0.15787443  0.56414722    -0.20600
C1410       C  0.59948031  0.18791747  0.56902643    -0.11500
C1411       C  0.57015525  0.11538266  0.54385384    -0.15600
C1412       C  0.57964730  0.10084570  0.53222653    -0.29500
C1413       C  0.64272667  0.24034040  0.56288287    -0.03800
C1414       C  0.64458809  0.25226770  0.57865593    -0.40300
H1415       H  0.65419247  0.21190997  0.53624482     0.12500
H1416       H  0.62427850  0.15994188  0.52760771     0.12100
H1417       H  0.56169885  0.14319204  0.57184271     0.11500
H1418       H  0.59131812  0.19561159  0.58020763     0.11800
H1419       H  0.54594607  0.10380432  0.54949206     0.14500
H1420       H  0.60423777  0.11141252  0.52703797     0.13300
H1421       H  0.65378507  0.25520881  0.55220882     0.11000
H1422       H  0.63509868  0.23784383  0.58962791     0.13000
C1423       C  0.60302317  0.41841527  0.53454491     0.19100
C1424       C  0.61674565  0.40068886  0.52770140    -0.19000
C1425       C  0.62885041  0.38587556  0.53846410    -0.11300
C1426       C  0.62789113  0.38870538  0.55641801     0.21300
C1427       C  0.61519613  0.40725708  0.56333356    -0.20600
C1428       C  0.60251930  0.42177724  0.55250677    -0.11500
C1429       C  0.64070922  0.37287899  0.56793760    -0.15600
C1430       C  0.63707506  0.34548487  0.56390335    -0.29500
C1431       C  0.59060846  0.43362737  0.52239213    -0.03800
C1432       C  0.56549658  0.43999580  0.52573064    -0.40300
H1433       H  0.61786486  0.39807658  0.51392035     0.12500
H1434       H  0.63943604  0.37254810  0.53268091     0.12100
H1435       H  0.61468821  0.41017530  0.57711778     0.11500
H1436       H  0.59290007  0.43594090  0.55817702     0.11800
H1437       H  0.65212108  0.38341954  0.58005142     0.14500
H1438       H  0.62282176  0.33418383  0.55253377     0.13300
H1439       H  0.60100143  0.43760811  0.50958004     0.11000
H1440       H  0.55313424  0.43420473  0.53801256     0.13000
C1441       C  0.50002852  0.50763711  0.01588291     0.19100
C1442       C  0.52333454  0.53084475  0.00613614    -0.19000
C1443       C  0.52403433  0.52841385  0.98823809    -0.11300
C1444       C  0.50278058  0.00296872  0.98083145     0.21300
C1445       C  0.00735939  0.97984886  0.99212909    -0.20600
C1446       C  0.00436401  0.98209455  0.00990689    -0.11500
C1447       C  0.01152449  0.99843784  0.96231469    -0.15600
C1448       C  0.51618236  0.52069044  0.94935057    -0.29500
C1449       C  0.50036559  0.51173593  0.03488537    -0.03800
C1450       C  0.48826692  0.98982361  0.04787045    -0.40300
H1451       H  0.54138081  0.55091731  0.01242580     0.12500
H1452       H  0.54298117  0.54649239  0.98134454     0.12100
H1453       H  0.00846399  0.96026698  0.98691074     0.11500
H1454       H  0.00387777  0.96440414  0.01781206     0.11800
H1455       H  0.00663921  0.97619864  0.95819823     0.14500
H1456       H  0.52790417  0.54365072  0.95382811     0.13300
H1457       H  0.51530063  0.53417530  0.03968575     0.11000
H1458       H  0.98578318  0.96708726  0.04385350     0.13000
C1459       C  0.67083313  0.35779718  0.68681504     0.19100
C1460       C  0.69071709  0.37574929  0.67365624    -0.19000
C1461       C  0.68681043  0.36529059  0.65665336    -0.11300
C1462       C  0.66264965  0.33644416  0.65232268     0.21300
C1463       C  0.64269555  0.31850093  0.66545902    -0.20600
C1464       C  0.64660795  0.32895154  0.68247180    -0.11500
C1465       C  0.65830863  0.32343623  0.63461618    -0.15600
C1466       C  0.67247730  0.33884920  0.62033965    -0.29500
C1467       C  0.67671258  0.37033510  0.70469338    -0.03800
C1468       C  0.65970507  0.35613132  0.71870329    -0.40300
H1469       H  0.70967338  0.39802071  0.67655797     0.12500
H1470       H  0.70326683  0.37978636  0.64714457     0.12100
H1471       H  0.62401579  0.29610380  0.66256828     0.11500
H1472       H  0.63064366  0.31413773  0.69201239     0.11800
H1473       H  0.64227883  0.29976053  0.63344045     0.14500
H1474       H  0.68687666  0.36281113  0.62100931     0.13300
H1475       H  0.69670557  0.39255623  0.70628186     0.11000
H1476       H  0.64041691  0.33351606  0.71766972     0.13000
C1477       C  0.96540611  0.40740004  0.88761911     0.19100
C1478       C  0.93179934  0.38808225  0.88580996    -0.19000
C1479       C  0.92111822  0.35932099  0.87903236    -0.11300
C1480       C  0.94393405  0.34915414  0.87394455     0.21300
C1481       C  0.97753362  0.36820336  0.87608721    -0.20600
C1482       C  0.98824116  0.39704245  0.88279684    -0.11500
C1483       C  0.93346933  0.31847185  0.86707428    -0.15600
C1484       C  0.90488626  0.30295814  0.85860243    -0.29500
C1485       C  0.97543164  0.43751151  0.89531097    -0.03800
C1486       C  0.00555941  0.46041532  0.89371232    -0.40300
H1487       H  0.91368102  0.39524705  0.88971372     0.12500
H1488       H  0.89499136  0.34494715  0.87818564     0.12100
H1489       H  0.99558233  0.36073178  0.87255202     0.11500
H1490       H  0.01433824  0.41072069  0.88452181     0.11800
H1491       H  0.95021159  0.30869863  0.86866143     0.14500
H1492       H  0.88883410  0.31315052  0.85610737     0.13300
H1493       H  0.95713768  0.44120279  0.90247138     0.11000
H1494       H  0.51890474  0.45508806  0.88791647     0.13000
C1495       C  0.64181575  0.08051335  0.88837991     0.19100
C1496       C  0.66842388  0.07426128  0.88548329    -0.19000
C1497       C  0.69577285  0.09383956  0.87631249    -0.11300
C1498       C  0.69724047  0.12035338  0.86977294     0.21300
C1499       C  0.67090125  0.12693714  0.87291944    -0.20600
C1500       C  0.64350149  0.10733547  0.88217370    -0.11500
C1501       C  0.72405135  0.13979898  0.85816213    -0.15600
C1502       C  0.75381631  0.14028733  0.85774476    -0.29500
C1503       C  0.61160035  0.05690112  0.89608248    -0.03800
C1504       C  0.58654719  0.06114926  0.90240331    -0.40300
H1505       H  0.66759722  0.05358042  0.88985622     0.12500
H1506       H  0.71487262  0.08728370  0.87370744     0.12100
H1507       H  0.67114127  0.14695423  0.86780108     0.11500
H1508       H  0.62322168  0.11269684  0.88370179     0.11800
H1509       H  0.71847581  0.15318791  0.84910649     0.14500
H1510       H  0.76026911  0.12799440  0.86712004     0.13300
H1511       H  0.60969538  0.03460560  0.89614210     0.11000
H1512       H  0.58884823  0.08346558  0.90385340     0.13000
C1513       C  0.95160753  0.07017229  0.88602862     0.19100
C1514       C  0.92773080  0.06264332  0.87295813    -0.19000
C1515       C  0.91613441  0.08278854  0.86775265    -0.11300
C1516       C  0.92808879  0.11117845  0.87555842     0.21300
C1517       C  0.95177734  0.11868646  0.88869295    -0.20600
C1518       C  0.96335031  0.09853961  0.89392569    -0.11500
C1519       C  0.91816480  0.13421014  0.86976243    -0.15600
C1520       C  0.89100857  0.12835113  0.86031089    -0.29500
C1521       C  0.96402210  0.04808013  0.89041911    -0.03800
C1522       C  0.98653897  0.05208033  0.90278824    -0.40300
H1523       H  0.91829351  0.04114032  0.86650943     0.12500
H1524       H  0.89854759  0.07620703  0.85728846     0.12100
H1525       H  0.96164925  0.14043831  0.89487395     0.11500
H1526       H  0.98178245  0.10576472  0.90396109     0.11800
H1527       H  0.93408648  0.15715960  0.87352521     0.14500
H1528       H  0.87391265  0.10555421  0.85700419     0.13300
H1529       H  0.95451508  0.02782463  0.88268119     0.11000
H1530       H  0.99660342  0.07221929  0.91057305     0.13000
C1531       C  0.75893271  0.27865164  0.79133971     0.19100
C1532       C  0.72565665  0.27197948  0.79285294    -0.19000
C1533       C  0.71403836  0.29152052  0.78673745    -0.11300
C1534       C  0.73552174  0.31808715  0.77876872     0.21300
C1535       C  0.76871335  0.32460626  0.77710195    -0.20600
C1536       C  0.78032316  0.30506677  0.78320309    -0.11500
C1537       C  0.72491334  0.34035338  0.77283826    -0.15600
C1538       C  0.69363368  0.33426533  0.76901233    -0.29500
C1539       C  0.76990711  0.25705618  0.79802521    -0.03800
C1540       C  0.80132222  0.26361165  0.80189784    -0.40300
H1541       H  0.70862885  0.25172567  0.79903216     0.12500
H1542       H  0.68848765  0.28602563  0.78864459     0.12100
H1543       H  0.78577373  0.34493046  0.77099834     0.11500
H1544       H  0.80589642  0.31065061  0.78132915     0.11800
H1545       H  0.74428610  0.36272275  0.77097208     0.14500
H1546       H  0.67434172  0.31154189  0.76924339     0.13300
H1547       H  0.75075957  0.23471005  0.80038454     0.11000
H1548       H  0.82087699  0.28600365  0.80043798     0.13000
C1549       C  0.54430488  0.31046400  0.77085997     0.19100
C1550       C  0.52681962  0.27936185  0.77173846    -0.19000
C1551       C  0.99662398  0.26277783  0.77946963    -0.11300
C1552       C  0.98062082  0.27963852  0.78492755     0.21300
C1553       C  0.99534384  0.31020583  0.78147612    -0.20600
C1554       C  0.52904506  0.32777324  0.77669013    -0.11500
C1555       C  0.94970858  0.26644978  0.79508511    -0.15600
C1556       C  0.94304367  0.24376088  0.80585488    -0.29500
C1557       C  0.57835843  0.32403431  0.76396585    -0.03800
C1558       C  0.60098246  0.35155682  0.76860099    -0.40300
H1559       H  0.53757510  0.26544403  0.76697951     0.12500
H1560       H  0.98550758  0.23895013  0.78125940     0.12100
H1561       H  0.98333443  0.32364787  0.78522448     0.11500
H1562       H  0.54093873  0.35173118  0.77551736     0.11800
H1563       H  0.93446149  0.27793228  0.79541345     0.14500
H1564       H  0.95990900  0.23401614  0.80668037     0.13300
H1565       H  0.58512922  0.31044561  0.75552700     0.11000
H1566       H  0.59423847  0.36455418  0.77752660     0.13000
C1567       C  0.77916376  0.04291992  0.79345698     0.19100
C1568       C  0.78451623  0.53035243  0.77959909    -0.19000
C1569       C  0.76461425  0.50092590  0.77420756    -0.11300
C1570       C  0.73771086  0.48203035  0.78417809     0.21300
C1571       C  0.73140565  0.49300709  0.79964797    -0.20600
C1572       C  0.75082429  0.52251779  0.80481788    -0.11500
C1573       C  0.71655503  0.45046398  0.77931831    -0.15600
C1574       C  0.71104872  0.44012584  0.76300438    -0.29500
C1575       C  0.79811005  0.07453481  0.79876683    -0.03800
C1576       C  0.78214069  0.09048999  0.80274564    -0.40300
H1577       H  0.80499566  0.54465910  0.77174250     0.12500
H1578       H  0.77069171  0.49293459  0.76244325     0.12100
H1579       H  0.71109794  0.47880091  0.80764292     0.11500
H1580       H  0.74553194  0.03138106  0.81482196     0.11800
H1581       H  0.70411317  0.43508723  0.78959403     0.14500
H1582       H  0.72189228  0.45522592  0.75243387     0.13300
H1583       H  0.82476069  0.08498160  0.79853729     0.11000
H1584       H  0.75554081  0.08005888  0.80139578     0.13000
O1585       O  0.90541781  0.67771493  0.85277096    -0.80500
O1586       O  0.84586110  0.74868446  0.81175079    -0.65200
O1587       O  0.86131801  0.70165730  0.84533595    -1.11800
C1588       C  0.79826076  0.62151519  0.80811827     1.06400
O1589       O  0.79300958  0.71671105  0.80974887    -0.78400
O1590       O  0.77095767  0.66878365  0.83030260    -0.66000
Ni1591     Ni  0.90329244  0.71492559  0.85628513     1.34900
C1592       C  0.77680048  0.65548468  0.84259068     0.85100
O1593       O  0.87405150  0.76168732  0.84256025    -0.79000
O1594       O  0.90577721  0.75346817  0.86168314    -0.89200
C1595       C  0.81659437  0.74251769  0.80756030     0.84700
O1596       O  0.92892539  0.72970199  0.83621539    -0.67400
O1597       O  0.78306176  0.63689315  0.80514119    -0.86700
C1598       C  0.92407661  0.73804359  0.82162630     0.85500
C1599       C  0.89369900  0.76967125  0.85533311     1.07100
H1600       H  0.84809284  0.69218099  0.80513976     0.38900
O1601       O  0.83522457  0.69030336  0.81531470    -1.09400
O1602       O  0.80270778  0.65207360  0.84350696    -0.66000
Ni1603     Ni  0.84364899  0.66611938  0.83129831     1.26300
O1604       O  0.89686246  0.73752885  0.81710867    -0.66300
O1605       O  0.82510183  0.63135948  0.81664371    -0.78600
C1606       C  0.88316776  0.65084761  0.85283736     0.84900
O1607       O  0.85436994  0.64353037  0.84736075    -0.65700
Ni1608     Ni  0.79058993  0.67750413  0.80812325     1.27400
Ni1609     Ni  0.85512206  0.72628904  0.82863734     1.26100
H1610       H  0.84615580  0.69922056  0.85451978     0.39400
C1611       C  0.69441266  0.90915503  0.75689662     0.86900
C1612       C  0.69006297  0.90117345  0.73765241    -0.53400
C1613       C  0.67196624  0.87128839  0.73423134     0.09800
C1614       C  0.66014803  0.85238710  0.75057259     0.20700
C1615       C  0.65942338  0.89604950  0.76391767    -0.54100
C1616       C  0.64120827  0.86627355  0.76076703     0.09900
C1617       C  0.70949117  0.89011333  0.76441359    -0.53600
C1618       C  0.69187422  0.86029616  0.76103047     0.10500
H1619       H  0.70105861  0.91782237  0.72785504     0.15000
H1620       H  0.64597114  0.82822783  0.74773512     0.00700
H1621       H  0.64985530  0.90934213  0.77079369     0.15300
H1622       H  0.73215437  0.89989440  0.77181212     0.15100
C1623       C  0.00966066  0.98670388  0.90453944     0.86900
C1624       C  0.98947565  0.00284153  0.89906729    -0.53400
C1625       C  0.00382427  0.53319888  0.90440172     0.09800
C1626       C  0.52838272  0.54097947  0.91740139     0.20700
C1627       C  0.54292542  0.00797117  0.89989739    -0.54100
C1628       C  0.55570467  0.53831461  0.90709415     0.09900
C1629       C  0.00895252  0.98675247  0.92416905    -0.53600
C1630       C  0.51741177  0.01476599  0.93139534     0.10500
H1631       H  0.96875739  0.99280812  0.89028103     0.15000
H1632       H  0.53620499  0.56337606  0.92334209     0.00700
H1633       H  0.55692991  0.00150624  0.89101273     0.15300
H1634       H  0.00000471  0.96622094  0.93124376     0.15100
O1635       O  0.59542673  0.50807549  0.47594411    -0.80500
O1636       O  0.96665817  0.94663387  0.52042320    -0.65200
O1637       O  0.52960498  0.98850500  0.48720704    -1.11800
C1638       C  0.56042494  0.56976809  0.52545789     1.06400
O1639       O  0.95440574  0.98284174  0.52888072    -0.78400
O1640       O  0.97918490  0.53270983  0.50662093    -0.66000
Ni1641     Ni  0.55709656  0.97219654  0.47773365     1.34900
C1642       C  0.99560686  0.54216821  0.49293700     0.85100
O1643       O  0.97670862  0.93432432  0.48867650    -0.79000
O1644       O  0.52101665  0.93248166  0.47575661    -0.89200
C1645       C  0.94792244  0.95542014  0.52789553     0.84700
O1646       O  0.57046373  0.96335612  0.49923667    -0.67400
O1647       O  0.53051805  0.55743306  0.53025311    -0.86700
C1648       C  0.55484371  0.95368723  0.51310168     0.85500
C1649       C  0.98978800  0.92087560  0.48022195     1.07100
H1650       H  0.53007520  0.49828208  0.52665230     0.38900
O1651       O  0.51870019  0.50197030  0.51720191    -1.09400
O1652       O  0.52510907  0.54107298  0.48964468    -0.66000
Ni1653     Ni  0.55057851  0.52369813  0.50035297     1.26300
O1654       O  0.52674232  0.95244854  0.51589949    -0.66300
O1655       O  0.57213214  0.55795832  0.51475294    -0.78600
C1656       C  0.60164165  0.53542605  0.47643857     0.84900
O1657       O  0.58243037  0.54418358  0.48337515    -0.65700
Ni1658     Ni  0.98956990  0.51881921  0.52751556     1.27400
Ni1659     Ni  0.99851062  0.96785664  0.50362872     1.26100
H1660       H  0.51761809  0.99129809  0.47772808     0.39400
C1661       C  0.88877639  0.70678451  0.42344325     0.86900
C1662       C  0.85276400  0.68943459  0.42906785    -0.53400
C1663       C  0.83862643  0.65980032  0.42451036     0.09800
C1664       C  0.86189946  0.65070630  0.41457736     0.20700
C1665       C  0.90633729  0.68965985  0.43097775    -0.54100
C1666       C  0.89211178  0.66010331  0.42641212     0.09900
C1667       C  0.88806638  0.70127456  0.40400158    -0.53600
C1668       C  0.87377822  0.67185688  0.39922023     0.10500
H1669       H  0.84007506  0.69993380  0.43598495     0.15000
H1670       H  0.85049966  0.62674514  0.41081378     0.00700
H1671       H  0.92714587  0.69987391  0.43972493     0.15300
H1672       H  0.89857426  0.71938707  0.39500618     0.15100
C1673       C  0.66075705  0.78558674  0.57954015     0.86900
C1674       C  0.64358955  0.79994492  0.56885577    -0.53400
C1675       C  0.65540975  0.82982079  0.57164644     0.09800
C1676       C  0.68365546  0.84265045  0.58497412     0.20700
C1677       C  0.69737774  0.80331317  0.57539473    -0.54100
C1678       C  0.70949239  0.83343183  0.57809815     0.09900
C1679       C  0.65778898  0.79403525  0.59822995    -0.53600
C1680       C  0.66988262  0.82402762  0.60122605     0.10500
H1681       H  0.62403284  0.78756451  0.55966741     0.15000
H1682       H  0.69364749  0.86701577  0.58723121     0.00700
H1683       H  0.71192459  0.79266665  0.57076464     0.15300
H1684       H  0.64743351  0.77737439  0.60806279     0.15100
O1685       O  0.72106299  0.79984323  0.18866425    -0.80500
O1686       O  0.65498896  0.86299900  0.14604804    -0.65200
O1687       O  0.67448911  0.82100053  0.18084797    -1.11800
C1688       C  0.61893678  0.73815966  0.14340855     1.06400
O1689       O  0.60357906  0.82875990  0.14205363    -0.78400
O1690       O  0.58303099  0.78071426  0.16257277    -0.66000
Ni1691     Ni  0.71826463  0.83708700  0.19025347     1.34900
C1692       C  0.58936877  0.77146008  0.17653121     0.85100
O1693       O  0.68128344  0.87844153  0.17691631    -0.79000
O1694       O  0.72013317  0.87600924  0.19360303    -0.89200
C1695       C  0.62615000  0.85533150  0.14067888     0.84700
O1696       O  0.74168973  0.84894434  0.16916109    -0.67400
O1697       O  0.60285001  0.75185522  0.13836770    -0.86700
C1698       C  0.73447649  0.85727110  0.15513251     0.85500
C1699       C  0.70418515  0.88951596  0.18802985     1.07100
H1700       H  0.66354060  0.80877864  0.14107834     0.38900
O1701       O  0.64912879  0.80649911  0.15061258    -1.09400
O1702       O  0.61652194  0.77083635  0.17946900    -0.66000
Ni1703     Ni  0.65825823  0.78463271  0.16789678     1.26300
O1704       O  0.70669682  0.85631309  0.15210094    -0.66300
O1705       O  0.64229280  0.74894272  0.15432611    -0.78600
C1706       C  0.69918839  0.77296959  0.19003540     0.84900
O1707       O  0.66978859  0.76467506  0.18523699    -0.65700
Ni1708     Ni  0.60554226  0.79104150  0.14121767     1.27400
Ni1709     Ni  0.66535271  0.84274666  0.16354495     1.26100
H1710       H  0.66002703  0.81867791  0.19036530     0.39400
C1711       C  0.49690661  0.52164821  0.09250053     0.86900
C1712       C  0.49756972  0.52231579  0.07287354    -0.53400
C1713       C  0.48644456  0.49483209  0.06516634     0.09800
C1714       C  0.98127797  0.97045903  0.08006619     0.20700
C1715       C  0.96242190  0.50121664  0.09584882    -0.54100
C1716       C  0.95533524  0.97436644  0.09093342     0.09900
C1717       C  0.51637384  0.50474463  0.09761240    -0.53600
C1718       C  0.51151505  0.97909897  0.09138126     0.10500
H1719       H  0.50575649  0.54296834  0.06595656     0.15000
H1720       H  0.97229783  0.94779117  0.07430708     0.00700
H1721       H  0.94814204  0.50742785  0.10469281     0.15300
H1722       H  0.53686887  0.51416367  0.10655668     0.15100
C1723       C  0.81937501  0.60546769  0.24239595     0.86900
C1724       C  0.80178940  0.62369537  0.23669110    -0.53400
C1725       C  0.81969008  0.65376387  0.23961097     0.09800
C1726       C  0.85335858  0.66244329  0.24820501     0.20700
C1727       C  0.85243044  0.61936932  0.23322467    -0.54100
C1728       C  0.87025996  0.64922575  0.23605648     0.09900
C1729       C  0.82767242  0.61366366  0.26136471    -0.53600
C1730       C  0.84565173  0.64351954  0.26455850     0.10500
H1731       H  0.77746621  0.61333898  0.23093932     0.15000
H1732       H  0.86761878  0.68673456  0.25069820     0.00700
H1733       H  0.86051317  0.60678699  0.22468126     0.15300
H1734       H  0.81898396  0.59705783  0.27132382     0.15100
C1735       C  0.81701412  0.89300311  0.13151653     0.19100
C1736       C  0.84577196  0.88945004  0.13077448    -0.19000
C1737       C  0.87197584  0.90789449  0.12044229    -0.11300
C1738       C  0.86992934  0.93048138  0.11079448     0.21300
C1739       C  0.84117105  0.93393062  0.11151102    -0.20600
C1740       C  0.81498160  0.91543289  0.12170209    -0.11500
C1741       C  0.89860036  0.95329523  0.10176839    -0.15600
C1742       C  0.92394901  0.94904471  0.09601870    -0.29500
C1743       C  0.79081196  0.87505549  0.14375948    -0.03800
C1744       C  0.75945464  0.86998441  0.14167094    -0.40300
H1745       H  0.84821149  0.87276514  0.13847763     0.12500
H1746       H  0.89425156  0.90530220  0.12067907     0.12100
H1747       H  0.83931947  0.95161380  0.10452893     0.11500
H1748       H  0.79387419  0.91978099  0.12242950     0.11800
H1749       H  0.89927760  0.97501202  0.10034679     0.14500
H1750       H  0.92255396  0.92693848  0.09585854     0.13300
H1751       H  0.79779892  0.86673476  0.15507373     0.11000
H1752       H  0.75196472  0.87691133  0.12999794     0.13000
C1753       C  0.57323082  0.66285677  0.11931286     0.19100
C1754       C  0.54013131  0.64583235  0.11472661    -0.19000
C1755       C  0.52886537  0.61684139  0.10827672    -0.11300
C1756       C  0.55062052  0.60426849  0.10614161     0.21300
C1757       C  0.58391009  0.62151543  0.11032835    -0.20600
C1758       C  0.59515697  0.65049501  0.11694928    -0.11500
C1759       C  0.53947590  0.57381434  0.09883339    -0.15600
C1760       C  0.50877518  0.55204924  0.10086060    -0.29500
C1761       C  0.58389955  0.69363934  0.12596442    -0.03800
C1762       C  0.61010769  0.70806576  0.13636706    -0.40300
H1763       H  0.52286032  0.65499784  0.11617346     0.12500
H1764       H  0.50326763  0.60464352  0.10460639     0.12100
H1765       H  0.60122977  0.61249693  0.10851003     0.11500
H1766       H  0.62104641  0.66327321  0.11983563     0.11800
H1767       H  0.55707418  0.56894032  0.09180576     0.14500
H1768       H  0.49158267  0.55624173  0.10867064     0.13300
H1769       H  0.56843988  0.70422941  0.12286639     0.11000
H1770       H  0.62485127  0.69727436  0.14037167     0.08200
C1771       C  0.58004271  0.89652321  0.12148340     0.19100
C1772       C  0.55001706  0.88747690  0.11279644    -0.19000
C1773       C  0.53969611  0.90834131  0.10746042    -0.11300
C1774       C  0.55937753  0.93896114  0.11063011     0.21300
C1775       C  0.58942687  0.94803136  0.11931426    -0.20600
C1776       C  0.59971346  0.92715454  0.12469707    -0.11500
C1777       C  0.54858357  0.96189536  0.10618459    -0.15600
C1778       C  0.52462999  0.95739103  0.09466847    -0.29500
C1779       C  0.58873378  0.87317741  0.12783544    -0.03800
C1780       C  0.61885782  0.87866815  0.13343391    -0.40300
H1781       H  0.53414887  0.86404961  0.11036588     0.12500
H1782       H  0.51584481  0.90012358  0.10137397     0.12100
H1783       H  0.60484494  0.97139821  0.12217787     0.11500
H1784       H  0.62256342  0.93525834  0.13178759     0.11800
H1785       H  0.55279394  0.48048832  0.11236124     0.14500
H1786       H  0.51307804  0.93655713  0.08751364     0.13300
H1787       H  0.56933655  0.85041493  0.12795769     0.11000
H1788       H  0.63907672  0.90088178  0.13285747     0.13000
C1789       C  0.77250353  0.69382125  0.21901668     0.19100
C1790       C  0.74285550  0.68390683  0.20978555    -0.19000
C1791       C  0.73157693  0.70395631  0.20415439    -0.11300
C1792       C  0.74970687  0.73462707  0.20769594     0.21300
C1793       C  0.77957857  0.74466006  0.21670639    -0.20600
C1794       C  0.79090434  0.72459457  0.22233469    -0.11500
C1795       C  0.73918104  0.75696287  0.20161299    -0.15600
C1796       C  0.70829599  0.75025366  0.19661612    -0.29500
C1797       C  0.78326499  0.67120201  0.22440534    -0.03800
C1798       C  0.80912295  0.67674541  0.23482775    -0.40300
H1799       H  0.72833393  0.66044405  0.20680560     0.12500
H1800       H  0.70902751  0.69523229  0.19674889     0.12100
H1801       H  0.79430020  0.76820171  0.21939486     0.11500
H1802       H  0.81420329  0.73357605  0.22903576     0.11800
H1803       H  0.75771916  0.78007373  0.20144495     0.14500
H1804       H  0.68893607  0.72762092  0.19730862     0.13300
H1805       H  0.76895231  0.64882430  0.21934797     0.11000
H1806       H  0.82396225  0.69895667  0.23992385     0.13000
C1807       C  0.77689120  0.52822064  0.21942679     0.19100
C1808       C  0.76027295  0.51773900  0.20372528    -0.19000
C1809       C  0.74741647  0.48763619  0.19910507    -0.11300
C1810       C  0.74810595  0.96667796  0.21055335     0.21300
C1811       C  0.76807927  0.47785817  0.22571078    -0.20600
C1812       C  0.78073752  0.50792930  0.23039609    -0.11500
C1813       C  0.73741164  0.93504861  0.20536244    -0.15600
C1814       C  0.71261623  0.91994780  0.19426660    -0.29500
C1815       C  0.79192634  0.56067554  0.22330258    -0.03800
C1816       C  0.80036345  0.57232150  0.23923517    -0.40300
H1817       H  0.75754506  0.53297703  0.19490568     0.12500
H1818       H  0.72486470  0.97865994  0.18955301     0.12100
H1819       H  0.77175116  0.46275660  0.23424399     0.11500
H1820       H  0.79441570  0.51520790  0.24232355     0.11800
H1821       H  0.75074554  0.92385141  0.21080772     0.14500
H1822       H  0.69807785  0.93017764  0.18917193     0.13300
H1823       H  0.79679995  0.57572201  0.21259653     0.11000
H1824       H  0.79443419  0.55778703  0.25020966     0.13000
C1825       C  0.95150660  0.70989472  0.21855924     0.19100
C1826       C  0.48232563  0.72676917  0.22758610    -0.19000
C1827       C  0.50953642  0.74195353  0.21699638    -0.11300
C1828       C  0.50537724  0.74207768  0.19907501     0.21300
C1829       C  0.47356465  0.72744585  0.19208473    -0.20600
C1830       C  0.94730167  0.70742972  0.20061987    -0.11500
C1831       C  0.53324135  0.75717082  0.18713659    -0.15600
C1832       C  0.56373552  0.76011557  0.18993387    -0.29500
C1833       C  0.92314430  0.69409732  0.23003461    -0.03800
C1834       C  0.90039908  0.66634241  0.22608009    -0.40300
H1835       H  0.48601180  0.72679474  0.24133602     0.12500
H1836       H  0.53362978  0.75372027  0.22284883     0.12100
H1837       H  0.46962664  0.72756953  0.17836260     0.11500
H1838       H  0.92316639  0.69486618  0.19491503     0.11800
H1839       H  0.52755080  0.76374636  0.17481458     0.14500
H1840       H  0.56945296  0.75224492  0.20179360     0.13300
H1841       H  0.92181579  0.70476541  0.24200539     0.11000
H1842       H  0.90407817  0.65521691  0.21483071     0.13000
C1843       C  0.86192782  0.65140734  0.31390733     0.19100
C1844       C  0.86411973  0.63245997  0.32642360    -0.19000
C1845       C  0.86809412  0.64068085  0.34382609    -0.11300
C1846       C  0.86975662  0.66814281  0.34915648     0.21300
C1847       C  0.86806160  0.68725890  0.33661699    -0.20600
C1848       C  0.86405100  0.67903379  0.31922838    -0.11500
C1849       C  0.87376859  0.67823465  0.36746123    -0.15600
C1850       C  0.86996928  0.66071163  0.38111595    -0.29500
C1851       C  0.85581398  0.64058594  0.29573238    -0.03800
C1852       C  0.85528844  0.65676147  0.28211554    -0.40300
H1853       H  0.86257222  0.61103044  0.32273448     0.12500
H1854       H  0.87004168  0.62547754  0.35290151     0.12100
H1855       H  0.86943415  0.70861988  0.34031206     0.11500
H1856       H  0.86209469  0.69427713  0.31019655     0.11800
H1857       H  0.87896542  0.70124696  0.36965393     0.14500
H1858       H  0.86267406  0.63719128  0.37927341     0.13300
H1859       H  0.85131258  0.61772379  0.29358047     0.11000
H1860       H  0.86196681  0.68022340  0.28356450     0.13000
C1861       C  0.68889505  0.57605796  0.45650598     0.19100
C1862       C  0.70969103  0.56702891  0.44757138    -0.19000
C1863       C  0.74057191  0.58792585  0.44187088    -0.11300
C1864       C  0.75154012  0.61863130  0.44494949     0.21300
C1865       C  0.73079106  0.62763496  0.45391435    -0.20600
C1866       C  0.69997496  0.60676501  0.45963488    -0.11500
C1867       C  0.78484607  0.64188282  0.43994286    -0.15600
C1868       C  0.80456574  0.63726465  0.42867198    -0.29500
C1869       C  0.65676227  0.55272435  0.46296227    -0.03800
C1870       C  0.63258908  0.55848351  0.46917542    -0.40300
H1871       H  0.70216194  0.54359219  0.44513676     0.12500
H1872       H  0.75586572  0.57965522  0.43548348     0.12100
H1873       H  0.73861626  0.65102194  0.45669665     0.11500
H1874       H  0.68552826  0.61501975  0.46684120     0.11800
H1875       H  0.79336842  0.66365127  0.44600141     0.14500
H1876       H  0.79616186  0.61576692  0.42234312     0.13300
H1877       H  0.65293647  0.52978468  0.46263054     0.11000
H1878       H  0.63529054  0.58099546  0.46926096     0.13000
C1879       C  0.92546640  0.78218746  0.44909371     0.19100
C1880       C  0.91812202  0.79212923  0.46468244    -0.19000
C1881       C  0.93502058  0.82212995  0.46979070    -0.11300
C1882       C  0.95998135  0.84272989  0.45945810     0.21300
C1883       C  0.96758132  0.83274553  0.44400589    -0.20600
C1884       C  0.95048651  0.80291020  0.43880913    -0.11500
C1885       C  0.98011845  0.87425425  0.46488217    -0.15600
C1886       C  0.96861931  0.88979507  0.47455276    -0.29500
C1887       C  0.90798711  0.74991795  0.44438869    -0.03800
C1888       C  0.90485100  0.73967183  0.42809064    -0.40300
H1889       H  0.89936419  0.77658562  0.47297939     0.12500
H1890       H  0.92920402  0.82892235  0.48203598     0.12100
H1891       H  0.98705008  0.84809488  0.43596453     0.11500
H1892       H  0.95777676  0.79610346  0.42700724     0.11800
H1893       H  0.50606250  0.88371104  0.46000730     0.14500
H1894       H  0.94309837  0.87952973  0.47846382     0.13300
H1895       H  0.89702796  0.73402471  0.45461768     0.11000
H1896       H  0.91411918  0.75538560  0.41768099     0.13000
C1897       C  0.93803666  0.62280259  0.45033370     0.19100
C1898       C  0.97012038  0.62576712  0.45081510    -0.19000
C1899       C  0.97774164  0.60668088  0.46080082    -0.11300
C1900       C  0.95340790  0.58448014  0.47074436     0.21300
C1901       C  0.92143252  0.58171811  0.47030940    -0.20600
C1902       C  0.91372108  0.60045251  0.46013585    -0.11500
C1903       C  0.96097755  0.56541534  0.48267059    -0.15600
C1904       C  0.98551075  0.55798916  0.48008139    -0.29500
C1905       C  0.93102148  0.64480856  0.44084534    -0.03800
C1906       C  0.90146091  0.63782321  0.43373137    -0.40300
H1907       H  0.98940818  0.64313404  0.44361502     0.12500
H1908       H  0.00291419  0.61014412  0.46120027     0.12100
H1909       H  0.90238532  0.56518343  0.47804368     0.11500
H1910       H  0.88897974  0.59814065  0.46050700     0.11800
H1911       H  0.94580570  0.55731235  0.49399860     0.14500
H1912       H  0.00000235  0.56506191  0.46847996     0.13300
H1913       H  0.95068105  0.66729582  0.43981056     0.11000
H1914       H  0.88285080  0.61476813  0.43342973     0.13000
C1915       C  0.79853094  0.87356350  0.56015730     0.19100
C1916       C  0.82113098  0.86408891  0.55388428    -0.19000
C1917       C  0.85222656  0.88461908  0.54834327    -0.11300
C1918       C  0.86155944  0.91543066  0.54879004     0.21300
C1919       C  0.83896885  0.92488926  0.55517858    -0.20600
C1920       C  0.80786090  0.90432642  0.56074239    -0.11500
C1921       C  0.89390822  0.93843878  0.54238597    -0.15600
C1922       C  0.91708041  0.93232583  0.53516465    -0.29500
C1923       C  0.76511314  0.85053140  0.56499611    -0.03800
C1924       C  0.74371755  0.85611084  0.57446714    -0.40300
H1925       H  0.81463204  0.84056537  0.55317085     0.12500
H1926       H  0.86840428  0.87587164  0.54364572     0.12100
H1927       H  0.84520411  0.94836546  0.55561947     0.11500
H1928       H  0.79109444  0.91276195  0.56501111     0.11800
H1929       H  0.89847303  0.96156174  0.54325587     0.14500
H1930       H  0.91346818  0.90961164  0.53394131     0.13300
H1931       H  0.75794211  0.82807119  0.56027452     0.11000
H1932       H  0.75073954  0.87837906  0.57943243     0.13000
C1933       C  0.62842252  0.70765138  0.55721783     0.19100
C1934       C  0.63591539  0.69669078  0.54206358    -0.19000
C1935       C  0.61879889  0.66652591  0.53749454    -0.11300
C1936       C  0.59360446  0.64662279  0.54801533     0.21300
C1937       C  0.58602258  0.65757435  0.56311931    -0.20600
C1938       C  0.60318223  0.68769126  0.56771247    -0.11500
C1939       C  0.57290288  0.61501221  0.54294639    -0.15600
C1940       C  0.58279899  0.59983595  0.53202590    -0.29500
C1941       C  0.64565588  0.74023654  0.56096194    -0.03800
C1942       C  0.64666790  0.75230286  0.57661243    -0.40300
H1943       H  0.65476616  0.71163002  0.53357827     0.12500
H1944       H  0.62462054  0.65922750  0.52542436     0.12100
H1945       H  0.56632869  0.64283553  0.57126976     0.11500
H1946       H  0.59566836  0.69524569  0.57916297     0.11800
H1947       H  0.54836740  0.60398295  0.54827134     0.14500
H1948       H  0.60773180  0.60998368  0.52723289     0.13300
H1949       H  0.65749186  0.75502491  0.55035933     0.11000
H1950       H  0.63634590  0.73801443  0.58754760     0.13000
C1951       C  0.60892358  0.92275354  0.53502356     0.19100
C1952       C  0.62506129  0.90743039  0.52767732    -0.19000
C1953       C  0.63654341  0.89142828  0.53788279    -0.11300
C1954       C  0.63259313  0.89070824  0.55579465     0.21300
C1955       C  0.61766810  0.90703941  0.56329142    -0.20600
C1956       C  0.60560481  0.92271715  0.55299811    -0.11500
C1957       C  0.64454709  0.87353407  0.56676206    -0.15600
C1958       C  0.64320765  0.84748906  0.56138627    -0.29500
C1959       C  0.59627230  0.93846224  0.52334721    -0.03800
C1960       C  0.56943811  0.94240571  0.52648373    -0.40300
H1961       H  0.62834803  0.90743544  0.51390000     0.12500
H1962       H  0.64887742  0.87990441  0.53172820     0.12100
H1963       H  0.61485120  0.90723599  0.57709532     0.11500
H1964       H  0.59406600  0.93496538  0.55911574     0.11800
H1965       H  0.65308531  0.88172983  0.57969739     0.14500
H1966       H  0.63156871  0.83798507  0.54911512     0.13300
H1967       H  0.60779534  0.94444949  0.51084678     0.11000
H1968       H  0.55642289  0.93505372  0.53850158     0.13000
C1969       C  0.50265022  0.00755546  0.01726658     0.19100
C1970       C  0.52290530  0.03209474  0.00729906    -0.19000
C1971       C  0.52310848  0.02990981  0.98935823    -0.11300
C1972       C  0.50106830  0.50269780  0.97960427     0.21300
C1973       C  0.98023892  0.47854109  0.98852466    -0.20600
C1974       C  0.97961232  0.48085669  0.00645944    -0.11500
C1975       C  0.00424586  0.49768258  0.95985461    -0.15600
C1976       C  0.51893037  0.02046714  0.95033369    -0.29500
C1977       C  0.50363065  0.01160843  0.03634311    -0.03800
C1978       C  0.48495235  0.48964548  0.04619518    -0.40300
H1979       H  0.53886360  0.05318387  0.01343998     0.12500
H1980       H  0.53939473  0.04940521  0.98240662     0.12100
H1981       H  0.96199605  0.45865728  0.98216570     0.11500
H1982       H  0.96054245  0.46284480  0.01332702     0.11800
H1983       H  0.99013407  0.47523475  0.95483626     0.14500
H1984       H  0.53383628  0.04319401  0.95464032     0.13300
H1985       H  0.51881360  0.03406318  0.04104515     0.11000
H1986       H  0.97318046  0.46597174  0.04114383     0.13000
C1987       C  0.66731150  0.85903162  0.68436346     0.19100
C1988       C  0.67408218  0.87778388  0.67012713    -0.19000
C1989       C  0.67123878  0.86654026  0.65332343    -0.11300
C1990       C  0.66161609  0.83607989  0.65032522     0.21300
C1991       C  0.65435398  0.81726422  0.66452232    -0.20600
C1992       C  0.65726076  0.82848484  0.68130105    -0.11500
C1993       C  0.65852492  0.82266712  0.63280301    -0.15600
C1994       C  0.67136234  0.83820542  0.61838630    -0.29500
C1995       C  0.67205220  0.87260337  0.70198865    -0.03800
C1996       C  0.66523482  0.85719077  0.71675746    -0.40300
H1997       H  0.68175301  0.90137269  0.67200207     0.12500
H1998       H  0.67634985  0.88183530  0.64284432     0.12100
H1999       H  0.64676552  0.79368528  0.66264619     0.11500
H2000       H  0.65192917  0.81296955  0.69165584     0.11800
H2001       H  0.64589524  0.79858936  0.63206935     0.14500
H2002       H  0.68445334  0.86227768  0.61898715     0.13300
H2003       H  0.68183662  0.89661860  0.70267027     0.11000
H2004       H  0.65425299  0.83313705  0.71641706     0.13000
C2005       C  0.95772263  0.90260025  0.89326036     0.19100
C2006       C  0.92474124  0.88477309  0.88872464    -0.19000
C2007       C  0.91419448  0.85545970  0.88283703    -0.11300
C2008       C  0.93643486  0.84321785  0.88160615     0.21300
C2009       C  0.96909857  0.86062084  0.88690794    -0.20600
C2010       C  0.97975034  0.89008571  0.89255198    -0.11500
C2011       C  0.92631548  0.81243111  0.87494469    -0.15600
C2012       C  0.90262682  0.79948143  0.86291968    -0.29500
C2013       C  0.96813490  0.93365975  0.89942159    -0.03800
C2014       C  0.99842341  0.95581998  0.89682719    -0.40300
H2015       H  0.90716328  0.89369151  0.88953981     0.12500
H2016       H  0.88856795  0.84236496  0.87945027     0.12100
H2017       H  0.98656392  0.85154650  0.88640336     0.11500
H2018       H  0.00508537  0.90286163  0.89658321     0.11800
H2019       H  0.94020244  0.80093237  0.87920428     0.14500
H2020       H  0.89019498  0.81168292  0.85777071     0.13300
H2021       H  0.95025364  0.93861399  0.90610258     0.11000
H2022       H  0.51254669  0.95156813  0.88912223     0.13000
C2023       C  0.64240368  0.58382563  0.88863141     0.19100
C2024       C  0.66978351  0.57844971  0.88649048    -0.19000
C2025       C  0.69582702  0.59660450  0.87608205    -0.11300
C2026       C  0.69528674  0.62088193  0.86756491     0.21300
C2027       C  0.66802691  0.62648424  0.86977877    -0.20600
C2028       C  0.64187856  0.60827372  0.88026388    -0.11500
C2029       C  0.72148517  0.63907902  0.85529692    -0.15600
C2030       C  0.75226901  0.64195838  0.85625095    -0.29500
C2031       C  0.61349522  0.56105631  0.89769393    -0.03800
C2032       C  0.58705620  0.56438945  0.90260371    -0.40300
H2033       H  0.67056089  0.55943201  0.89245116     0.12500
H2034       H  0.71561965  0.59067504  0.87421099     0.12100
H2035       H  0.66670097  0.64469545  0.86312597     0.11500
H2036       H  0.62086090  0.61272363  0.88113378     0.11800
H2037       H  0.71492788  0.64969177  0.84492032     0.14500
H2038       H  0.75938119  0.63237222  0.86691469     0.13300
H2039       H  0.61324863  0.53959509  0.89955252     0.11000
H2040       H  0.58734853  0.58604444  0.90236202     0.13000
C2041       C  0.95273011  0.57022110  0.88454751     0.19100
C2042       C  0.92692747  0.56123317  0.87247304    -0.19000
C2043       C  0.91564325  0.58122539  0.86663587    -0.11300
C2044       C  0.92992317  0.61080695  0.87282664     0.21300
C2045       C  0.95545750  0.61975011  0.88497421    -0.20600
C2046       C  0.96666798  0.59980382  0.89085085    -0.11500
C2047       C  0.92025643  0.63349808  0.86644852    -0.15600
C2048       C  0.89124790  0.62712797  0.85884914    -0.29500
C2049       C  0.96477540  0.54827238  0.88961571    -0.03800
C2050       C  0.99020285  0.55434599  0.90046055    -0.40300
H2051       H  0.91576598  0.53871610  0.86728408     0.12500
H2052       H  0.89643390  0.57357822  0.85696255     0.12100
H2053       H  0.96696326  0.64243035  0.88991878     0.11500
H2054       H  0.98643938  0.60812942  0.90015655     0.11800
H2055       H  0.93767611  0.65671703  0.86858805     0.14500
H2056       H  0.87263516  0.60422628  0.85734430     0.13300
H2057       H  0.95236417  0.52629185  0.88374576     0.11000
H2058       H  0.00265491  0.57594932  0.90667966     0.13000
C2059       C  0.76763388  0.78232527  0.78973667     0.19100
C2060       C  0.73383132  0.77287943  0.78737434    -0.19000
C2061       C  0.72202664  0.79249578  0.78166259    -0.11300
C2062       C  0.74389732  0.82217227  0.77798630     0.21300
C2063       C  0.77773454  0.83166198  0.78034254    -0.20600
C2064       C  0.78956148  0.81202504  0.78609057    -0.11500
C2065       C  0.73268713  0.84427314  0.77229965    -0.15600
C2066       C  0.70213286  0.83740169  0.76645860    -0.29500
C2067       C  0.77831088  0.76022995  0.79605026    -0.03800
C2068       C  0.80919792  0.76619040  0.80074643    -0.40300
H2069       H  0.71630997  0.75018159  0.79014859     0.12500
H2070       H  0.69577272  0.78428510  0.78049533     0.12100
H2071       H  0.79518350  0.85444094  0.77770130     0.11500
H2072       H  0.81577832  0.82034939  0.78755350     0.11800
H2073       H  0.75112922  0.86732945  0.77258519     0.14500
H2074       H  0.68405170  0.81436060  0.76494365     0.13300
H2075       H  0.75909678  0.73753235  0.79722779     0.11000
H2076       H  0.82922258  0.78845766  0.79995762     0.13000
C2077       C  0.55307634  0.80650660  0.77230438     0.19100
C2078       C  0.53973491  0.77685269  0.77769726    -0.19000
C2079       C  0.00806292  0.76442161  0.78500892    -0.11300
C2080       C  0.98884516  0.77968621  0.78686294     0.21300
C2081       C  0.00062283  0.80826446  0.77993226    -0.20600
C2082       C  0.53327737  0.82137097  0.77315360    -0.11500
C2083       C  0.95718911  0.76674644  0.79648424    -0.15600
C2084       C  0.95243437  0.74854195  0.80984761    -0.29500
C2085       C  0.58750764  0.82108314  0.76583354    -0.03800
C2086       C  0.60642724  0.85077572  0.76653058    -0.40300
H2087       H  0.55405607  0.76461033  0.77686210     0.12500
H2088       H  0.99934762  0.74190541  0.78953804     0.12100
H2089       H  0.98614470  0.82034916  0.78085998     0.11500
H2090       H  0.54199871  0.84378748  0.76848227     0.11800
H2091       H  0.93903028  0.77451051  0.79367535     0.14500
H2092       H  0.97201250  0.74308543  0.81354810     0.13300
H2093       H  0.59794116  0.80672901  0.76135367     0.11000
H2094       H  0.59649578  0.86478104  0.77218076     0.13000
C2095       C  0.77745784  0.54140859  0.79481091     0.19100
C2096       C  0.78731557  0.03216695  0.77845071    -0.19000
C2097       C  0.76790212  0.00279280  0.77279656    -0.11300
C2098       C  0.74044901  0.98363320  0.78232466     0.21300
C2099       C  0.73308844  0.99422818  0.79763001    -0.20600
C2100       C  0.75202207  0.02364703  0.80306555    -0.11500
C2101       C  0.71997786  0.95206446  0.77728011    -0.15600
C2102       C  0.71469718  0.94197071  0.76091408    -0.29500
C2103       C  0.79698099  0.57296766  0.79999139    -0.03800
C2104       C  0.78196378  0.59033260  0.80199856    -0.40300
H2105       H  0.80823141  0.04668974  0.77092333     0.12500
H2106       H  0.77473861  0.99500823  0.76118629     0.12100
H2107       H  0.71236488  0.97976924  0.80530456     0.11500
H2108       H  0.74513920  0.53065000  0.81666762     0.11800
H2109       H  0.70789393  0.93641551  0.78749294     0.14500
H2110       H  0.72515571  0.95732706  0.75041031     0.13300
H2111       H  0.82339797  0.58202123  0.80160630     0.11000
H2112       H  0.75588706  0.58105439  0.79899306     0.13000
loop_ 
_geom_bond_atom_site_label_1 
_geom_bond_atom_site_label_2 
_geom_bond_distance 
_geom_bond_site_symmetry_2 
_ccdc_geom_bond_type 
O1           Ni7   1.929       .  S
O1           C22   1.271       .  A
O2          Ni25   1.912       .  S
O2           C11   1.269       .  A
O3           Ni7   1.925       .  S
O3          Ni25   1.919       .  S
O3          Ni19   1.928       .  S
O3           H26   0.966       .  S
C4           O21   1.271       .  A
C4           O13   1.272       .  A
C4          C520   1.476       .  S
O5          Ni24   1.933       .  S
O5           C11   1.273       .  A
O6          Ni24   1.911       .  S
O6            C8   1.271       .  A
Ni7          O10   1.937       .  S
Ni7          O12   1.895       .  S
C8           O18   1.274       .  A
C8          C446   1.479       .  S
O9          Ni25   1.899       .  S
O9           C15   1.264       .  A
O10          C15   1.273       .  A
C11         C484   1.487       .  S
O12          C14   1.268       .  A
O13         Ni24   1.935       .  S
C14          O20   1.281       .  A
C14         C500   1.475       .  S
C15         C428   1.478       .  S
H16          O17   0.967       .  S
O17         Ni25   1.910       .  S
O17         Ni19   1.909       .  S
O17         Ni24   1.925       .  S
O18         Ni19   1.940       .  S
Ni19         O23   1.902       .  S
Ni19         O21   1.918       .  S
O20         Ni25   1.958       .  S
C22          O23   1.265       .  A
C22         C464   1.479       .  S
C27          C28   1.535       .  S
C27          C33   1.530       .  S
C27          C31   1.531       .  S
C27         C518   1.515       .  S
C28          H35   1.083       .  S
C28          C29   1.373       .  D
C29          C30   1.545       .  S
C29         C412   1.493       .  S
C30          C34   1.546       .  S
C30          C32   1.551       .  S
C30          H36   1.108       .  S
C31          H37   1.087       .  S
C31          C32   1.365       .  D
C32         C502   1.492       .  S
C33          H38   1.084       .  S
C33          C34   1.367       .  D
C34         C482   1.495       .  S
C39          C40   1.538       .  S
C39          C45   1.530       .  S
C39         C430   1.511       .  S
C39        C1099   1.531       .  S
C40          H47   1.084       .  S
C40         C569   1.371       .  D
C41        C1098   1.541       .  S
C41         C568   1.372       .  D
C41         C466   1.489       .  S
C42          C44   1.542       .  S
C42        C1097   1.543       .  S
C42         C574   1.547       .  S
C42          H48   1.111       .  S
C43        C1095   1.533       .  S
C43          H49   1.085       .  S
C43         C572   1.368       .  D
C44         C571   1.369       .  D
C44         C448   1.492       .  S
C45          H50   1.084       .  S
C45        C1102   1.369       .  D
C46         C570   1.544       .  S
C46        C1101   1.369       .  D
C46         C392   1.490       .  S
O51        Ni585   1.941   1_545  S
O51          C72   1.273       .  A
O52         Ni75   1.901       .  S
O52          C61   1.265       .  A
O53         Ni57   1.926       .  S
O53       Ni1131   1.915   1_455  S
O53        Ni597   1.914       .  S
O53          H76   0.966       .  S
C54          O71   1.265       .  A
C54          O63   1.277       .  A
C54         C356   1.476       .  S
O55        Ni602   1.947       .  S
O55          C61   1.275       .  A
O56         Ni74   1.915       .  S
O56          C58   1.271       .  A
Ni57         O60   1.935       .  S
Ni57         O62   1.904       .  S
Ni57        O579   1.943       .  S
C58        O1124   1.272       .  A
C58         C320   1.480       .  S
O59         Ni75   1.905       .  S
O59          C65   1.268       .  A
O60        C1121   1.276   1_455  A
C61         C338   1.482       .  S
O62          C64   1.271       .  A
O63       Ni1130   1.943   1_455  S
C64          O70   1.276       .  A
C64         C376   1.483       .  S
C65        O1116   1.275       .  A
C65         C302   1.479       .  S
H66          O67   0.966   1_565  S
O67         Ni69   1.906       .  S
O67       Ni1659   1.906   1_445  S
O67       Ni1130   1.926   1_455  S
O68         Ni69   1.934       .  S
O68        C1114   1.272       .  A
Ni69         O73   1.894       .  S
Ni69         O71   1.896       .  S
Ni69        O581   1.916   1_545  S
O70       Ni1131   1.943   1_455  S
C72          O73   1.262       .  A
C72         C286   1.479       .  S
Ni74        O583   1.947   1_545  S
Ni74       O1119   1.939       .  S
Ni74       O1123   1.924       .  S
Ni75       O1126   1.941       .  S
Ni75       O1109   1.918       .  S
Ni75       O1651   1.903       .  S
C77          C78   1.538       .  S
C77          C83   1.532       .  S
C77          C81   1.535       .  S
C77         C304   1.511       .  S
C78          H85   1.084       .  S
C78          C79   1.372       .  D
C79          C80   1.540       .  S
C79         C284   1.490       .  S
C80          C84   1.542       .  S
C80          C82   1.540       .  S
C80          H86   1.111       .  S
C81          H87   1.085       .  S
C81          C82   1.369       .  D
C82         C322   1.489       .  S
C83          H88   1.084       .  S
C83          C84   1.366       .  D
C84         C266   1.491       .  S
C89          C90   1.533       .  S
C89          C95   1.533       .  S
C89          C93   1.535       .  S
C89         C358   1.510       .  S
C90          H97   1.087       .  S
C90          C91   1.363       .  D
C91          C92   1.543       .  S
C91         C374   1.484       .  S
C92          C96   1.543       .  S
C92          C94   1.542       .  S
C92          H98   1.109       .  S
C93          H99   1.084       .  S
C93          C94   1.371       .  D
C94         C340   1.490       .  S
C95         H100   1.084       .  S
C95          C96   1.370       .  D
C96         C410   1.490       .  S
O101       Ni107   1.941       .  S
O101        C122   1.275       .  A
O102       Ni125   1.896       .  S
O102        C111   1.263       .  A
O103       Ni107   1.928       .  S
O103       Ni125   1.908       .  S
O103       Ni119   1.910       .  S
O103        H126   0.966       .  S
C104        O121   1.268       .  A
C104        O113   1.275       .  A
C104        C178   1.477       .  S
O105       Ni124   1.937       .  S
O105        C111   1.273       .  A
O106       Ni124   1.901       .  S
O106        C108   1.270       .  A
Ni107       O110   1.941       .  S
Ni107       O112   1.913       .  S
C108        O118   1.274       .  A
C108        C248   1.481       .  S
O109       Ni125   1.900       .  S
O109        C115   1.267       .  A
O110        C115   1.276       .  A
C111        C196   1.477       .  S
O112        C114   1.271       .  A
O113       Ni124   1.933       .  S
C114        O120   1.273       .  A
C114        C160   1.479       .  S
C115        C230   1.478       .  S
H116        O117   0.966       .  S
O117       Ni125   1.911       .  S
O117       Ni119   1.912       .  S
O117       Ni124   1.927       .  S
O118       Ni119   1.937       .  S
Ni119       O123   1.896       .  S
Ni119       O121   1.903       .  S
O120       Ni125   1.933       .  S
C122        O123   1.264       .  A
C122        C212   1.479       .  S
C127        C128   1.527       .  S
C127        C133   1.535       .  S
C127        C176   1.507       .  S
C127       C1187   1.529   1_455  S
C128        H135   1.083       .  S
C128        C129   1.369   1_445  D
C129       C1714   1.546       .  S
C129        C394   1.494       .  S
C130        C132   1.541       .  S
C130       C1713   1.547       .  S
C130       C1190   1.543       .  S
C130        H136   1.111       .  S
C131       C1183   1.530       .  S
C131        H137   1.085       .  S
C131        C660   1.366   1_545  D
C132        C659   1.367       .  D
C132        C158   1.489       .  S
C133        H138   1.084       .  S
C133        C662   1.372   1_545  D
C134       C1186   1.541   1_455  S
C134        C661   1.370       .  D
C134        C194   1.487       .  S
C139        C140   1.535       .  S
C139        C145   1.532       .  S
C139        C143   1.532       .  S
C139        C232   1.514       .  S
C140        H147   1.084       .  S
C140        C141   1.372       .  D
C141        C142   1.543       .  S
C141        C214   1.488       .  S
C142        C146   1.544       .  S
C142        C144   1.543       .  S
C142        H148   1.110       .  S
C143        H149   1.087       .  S
C143        C144   1.363       .  D
C144        C250   1.483       .  S
C145        H150   1.084       .  S
C145        C146   1.370       .  D
C146        C268   1.493       .  S
C151        C159   1.491       .  S
C151        C152   1.405       .  A
C151        C156   1.408       .  A
C152        C153   1.402       .  A
C152        H161   1.083       .  S
C153        C154   1.408       .  A
C153        H162   1.081       .  S
C154        C157   1.488       .  S
C154        C155   1.403       .  A
C155        C156   1.398       .  A
C155        H163   1.084       .  S
C156        H164   1.081       .  S
C157        H165   1.086       .  S
C157        C158   1.348       .  D
C158        H166   1.085       .  S
C159        H167   1.087       .  S
C159        C160   1.347       .  D
C160        H168   1.085       .  S
C169        C177   1.487       .  S
C169        C170   1.403       .  A
C169        C174   1.409       .  A
C170        C171   1.396       .  A
C170        H179   1.083       .  S
C171        C172   1.407       .  A
C171        H180   1.082       .  S
C172        C175   1.482       .  S
C172        C173   1.401       .  A
C173        C174   1.399       .  A
C173        H181   1.083       .  S
C174        H182   1.081       .  S
C175        H183   1.087       .  S
C175        C176   1.343       .  D
C176        H184   1.086   1_455  S
C177        H185   1.087       .  S
C177        C178   1.346       .  D
C178        H186   1.084       .  S
C187        C195   1.486       .  S
C187        C188   1.402       .  A
C187        C192   1.407       .  A
C188        C189   1.398       .  A
C188        H197   1.083       .  S
C189        C190   1.409       .  A
C189        H198   1.080       .  S
C190        C193   1.489       .  S
C190        C191   1.405       .  A
C191        C192   1.398       .  A
C191        H199   1.084       .  S
C192        H200   1.081       .  S
C193        H729   1.084       .  S
C193        C194   1.349       .  D
C194        H202   1.082       .  S
C195        H203   1.087       .  S
C195        C196   1.345       .  D
C196        H204   1.085       .  S
H201        C721   1.084       .  S
C205        C213   1.489       .  S
C205        C206   1.403       .  A
C205        C210   1.407       .  A
C206        C207   1.399       .  A
C206        H215   1.084       .  S
C207        C208   1.410       .  A
C207        H216   1.079       .  S
C208        C211   1.494       .  S
C208        C209   1.405       .  A
C209        C210   1.399       .  A
C209        H217   1.083       .  S
C210        H218   1.081       .  S
C211        H219   1.087       .  S
C211        C212   1.348       .  D
C212        H220   1.082       .  S
C213        H221   1.084       .  S
C213        C214   1.349       .  D
C214        H222   1.084       .  S
C223        C231   1.488       .  S
C223        C224   1.403       .  A
C223        C228   1.408       .  A
C224        C225   1.399   1_545  A
C224        H233   1.083       .  S
C225        C754   1.408       .  A
C225        H762   1.081       .  S
C226        C229   1.488       .  S
C226        C753   1.409       .  A
C226        C755   1.403       .  A
C227        C228   1.399   1_565  A
C227        C754   1.403       .  A
C227        H235   1.083       .  S
C228        H236   1.081       .  S
C229        H237   1.087       .  S
C229        C230   1.346       .  D
C230        H238   1.085       .  S
C231        H239   1.087       .  S
C231        C232   1.346       .  D
C232        H240   1.085       .  S
H234        C753   1.081       .  S
C241        C249   1.487       .  S
C241        C246   1.405       .  A
C241       C1298   1.405       .  A
C242        C243   1.404   1_655  A
C242       C1297   1.404       .  A
C242        H251   1.083       .  S
C243        C244   1.408       .  A
C243        H252   1.082       .  S
C244        C247   1.482       .  S
C244        C245   1.401   1_455  A
C245       C1302   1.393       .  A
C245        H253   1.084       .  S
C246       C1301   1.396       .  A
C246        H254   1.083       .  S
C247        H255   1.087       .  S
C247        C248   1.346       .  D
C248        H256   1.086       .  S
C249        H257   1.086       .  S
C249        C250   1.344       .  D
C250        H258   1.087       .  S
C259        C267   1.491       .  S
C259        C260   1.406       .  A
C259        C264   1.407       .  A
C260        C261   1.399       .  A
C260        H269   1.083       .  S
C261        C262   1.406       .  A
C261        H270   1.081       .  S
C262        C265   1.490       .  S
C262        C263   1.406       .  A
C263        C264   1.401       .  A
C263        H271   1.083       .  S
C264        H272   1.081       .  S
C265        H273   1.084       .  S
C265        C266   1.352       .  D
C266        H274   1.084       .  S
C267        H275   1.084       .  S
C267        C268   1.352       .  D
C268        H276   1.083       .  S
C277        C285   1.491       .  S
C277        C278   1.402       .  A
C277        C282   1.409       .  A
C278        C279   1.399       .  A
C278        H287   1.083       .  S
C279        C280   1.410       .  A
C279        H288   1.079       .  S
C280        C283   1.495       .  S
C280        C281   1.405       .  A
C281        C282   1.399       .  A
C281        H289   1.083       .  S
C282        H290   1.081       .  S
C283        H291   1.084       .  S
C283        C284   1.349       .  D
C284        H292   1.081       .  S
C285        H293   1.087       .  S
C285        C286   1.346       .  D
C286        H294   1.084       .  S
C295        C303   1.484       .  S
C295        C296   1.402       .  A
C295        C300   1.406       .  A
C296        C297   1.400       .  A
C296        H305   1.083       .  S
C297        C298   1.409       .  A
C297        H306   1.081       .  S
C298        C301   1.486       .  S
C298        C299   1.403       .  A
C299        C300   1.396       .  A
C299        H307   1.084       .  S
C300        H308   1.082       .  S
C301       H1365   1.087       .  S
C301        C302   1.347       .  D
C302        H310   1.085       .  S
C303        H311   1.087       .  S
C303        C304   1.344       .  D
C304        H312   1.086       .  S
H309       C1357   1.087   1_455  S
C313        C321   1.488       .  S
C313        C314   1.403       .  A
C313        C318   1.408       .  A
C314        C315   1.398       .  A
C314        H323   1.083       .  S
C315        C316   1.407       .  A
C315        H324   1.082       .  S
C316        C319   1.488       .  S
C316        C317   1.404       .  A
C317        C318   1.402       .  A
C317        H325   1.083       .  S
C318        H326   1.082       .  S
C319        H327   1.087       .  S
C319        C320   1.347       .  D
C320        H328   1.086       .  S
C321        H329   1.085       .  S
C321        C322   1.347       .  D
C322        H330   1.085       .  S
C331        C339   1.490       .  S
C331        C332   1.403       .  A
C331        C336   1.408       .  A
C332        C333   1.400       .  A
C332        H341   1.084       .  S
C333        C334   1.410       .  A
C333        H342   1.080       .  S
C334        C337   1.495       .  S
C334        C335   1.405       .  A
C335        C336   1.401       .  A
C335        H343   1.083       .  S
C336        H344   1.081       .  S
C337        H345   1.087       .  S
C337        C338   1.349       .  D
C338        H346   1.084       .  S
C339        H347   1.084       .  S
C339        C340   1.349       .  D
C340        H348   1.084       .  S
C349        C357   1.482       .  S
C349        C350   1.403       .  A
C349        C354   1.406       .  A
C350        C351   1.399       .  A
C350        H359   1.084       .  S
C351        C352   1.409       .  A
C351        H360   1.081       .  S
C352        C355   1.484       .  S
C352        C353   1.402       .  A
C353        C354   1.396       .  A
C353        H361   1.083       .  S
C354        H362   1.082       .  S
C355        H363   1.087       .  S
C355        C356   1.344       .  D
C356        H364   1.085       .  S
C357        H365   1.087       .  S
C357        C358   1.345       .  D
C358        H366   1.086       .  S
C367        C375   1.487       .  S
C367        C368   1.404       .  A
C367        C372   1.408       .  A
C368        C369   1.397       .  A
C368        H377   1.084       .  S
C369        C370   1.406       .  A
C369        H378   1.083       .  S
C370        C373   1.486       .  S
C370        C371   1.404       .  A
C371        C372   1.403       .  A
C371        H379   1.083       .  S
C372        H380   1.082       .  S
C373        H381   1.085       .  S
C373        C374   1.344       .  D
C374        H382   1.087       .  S
C375        H383   1.087       .  S
C375        C376   1.349       .  D
C376        H384   1.085       .  S
C385        C393   1.490       .  S
C385        C386   1.405       .  A
C385       C1974   1.407   1_455  A
C386        C387   1.397   1_554  A
C386        H395   1.083       .  S
C387        C916   1.406       .  A
C387        H396   1.081       .  S
C388       C1447   1.491   1_545  S
C388        C915   1.406       .  A
C388       C1445   1.407   1_545  A
C389        C390   1.401   1_556  A
C389       C1444   1.408   1_565  A
C389        H397   1.083       .  S
C390       C1969   1.407   1_565  A
C390        H398   1.080       .  S
C391       C1444   1.495   1_565  S
C391        H399   1.084       .  S
C391       C1976   1.354   1_565  D
C392        H400   1.083       .  S
C392       C1975   1.351       .  D
C393        H401   1.084       .  S
C393        C922   1.351   1_455  D
C394       H1458   1.083       .  S
C394        C921   1.353   1_665  D
H402       C1450   1.083       .  S
C403        C411   1.495       .  S
C403        C404   1.406       .  A
C403        C408   1.408       .  A
C404        C405   1.400       .  A
C404        H413   1.083       .  S
C405        C406   1.408       .  A
C405        H414   1.079       .  S
C406        C409   1.494       .  S
C406        C407   1.405       .  A
C407        C408   1.399       .  A
C407        H415   1.084       .  S
C408        H416   1.079       .  S
C409        H417   1.084       .  S
C409        C410   1.351       .  D
C410        H418   1.082       .  S
C411        H419   1.083       .  S
C411        C412   1.352       .  D
C412        H420   1.081       .  S
C421        C429   1.487       .  S
C421        C422   1.402       .  A
C421        C426   1.409       .  A
C422        C423   1.398       .  A
C422        H431   1.083       .  S
C423        C424   1.408       .  A
C423        H432   1.081       .  S
C424        C427   1.488       .  S
C424        C425   1.403       .  A
C425        C426   1.399       .  A
C425        H433   1.083       .  S
C426        H434   1.081       .  S
C427        H435   1.087       .  S
C427        C428   1.346       .  D
C428        H436   1.085       .  S
C429        H437   1.087       .  S
C429        C430   1.345       .  D
C430       H1494   1.085       .  S
H438       C1486   1.084       .  S
C439        C447   1.490       .  S
C439        C440   1.403       .  A
C439        C444   1.408       .  A
C440        C441   1.398       .  A
C440        H449   1.084       .  S
C441        C442   1.409       .  A
C441        H450   1.080       .  S
C442        C445   1.493       .  S
C442        C443   1.406       .  A
C443        C444   1.403       .  A
C443        H451   1.083       .  S
C444        H452   1.081       .  S
C445        H453   1.087       .  S
C445        C446   1.348       .  D
C446        H454   1.084       .  S
C447        H455   1.086       .  S
C447        C448   1.349       .  D
C448        H456   1.085       .  S
C457        C465   1.491       .  S
C457        C458   1.405       .  A
C457        C462   1.409       .  A
C458        C459   1.399       .  A
C458        H467   1.083       .  S
C459        C460   1.407       .  A
C459        H468   1.081       .  S
C460        C463   1.489       .  S
C460        C461   1.404       .  A
C461        C462   1.399       .  A
C461        H469   1.083       .  S
C462        H470   1.080       .  S
C463        H471   1.087       .  S
C463        C464   1.348       .  D
C464        H472   1.084       .  S
C465        H473   1.084       .  S
C465        C466   1.349       .  D
C466        H474   1.082       .  S
C475        C483   1.494       .  S
C475        C476   1.407       .  A
C475        C480   1.407       .  A
C476        C477   1.401       .  A
C476        H485   1.083       .  S
C477        C478   1.406       .  A
C477        H486   1.080       .  S
C478        C481   1.494       .  S
C478        C479   1.407       .  A
C479        C480   1.401       .  A
C479        H487   1.083       .  S
C480        H488   1.080       .  S
C481        H489   1.084       .  S
C481        C482   1.354       .  D
C482        H490   1.083       .  S
C483        H491   1.087       .  S
C483        C484   1.353       .  D
C484        H492   1.084       .  S
C493        C501   1.495       .  S
C493        C494   1.404       .  A
C493        C498   1.410       .  A
C494       C1551   1.401   1_455  A
C494        H503   1.083       .  S
C495        C496   1.409       .  A
C495       C1550   1.400       .  A
C495        H504   1.082       .  S
C496        C499   1.490       .  S
C496        C497   1.402       .  A
C497       C1554   1.400       .  A
C497        H505   1.083       .  S
C498       C1553   1.402   1_455  A
C498        H506   1.081       .  S
C499        H507   1.087       .  S
C499        C500   1.344       .  D
C500        H508   1.086       .  S
C501        H509   1.084       .  S
C501        C502   1.348       .  D
C502        H510   1.085       .  S
C511        C519   1.485       .  S
C511       C1040   1.402       .  A
C511       C1044   1.405       .  A
C512        C513   1.403       .  A
C512       C1039   1.403       .  A
C512        H521   1.083       .  S
C513        C514   1.408       .  A
C513        H522   1.082       .  S
C514        C517   1.483       .  S
C514        C515   1.402       .  A
C515        C516   1.397       .  A
C515        H523   1.084       .  S
C516       C1039   1.407       .  A
C516       H1052   1.083       .  S
C517        H525   1.087       .  S
C517        C518   1.346       .  D
C518        H526   1.086       .  S
C519        H527   1.086       .  S
C519        C520   1.343       .  D
C520        H528   1.087       .  S
H524       C1044   1.083       .  S
O529       Ni535   1.935       .  S
O529        C550   1.273       .  A
O530       Ni553   1.913       .  S
O530        C539   1.270       .  A
O531       Ni535   1.914       .  S
O531       Ni553   1.916       .  S
O531       Ni547   1.921       .  S
O531        H554   0.966       .  S
C532        O549   1.275       .  A
C532        O541   1.273       .  A
C532       C1048   1.473       .  S
O533       Ni552   1.929       .  S
O533        C539   1.273       .  A
O534       Ni552   1.914       .  S
O534        C536   1.270       .  A
Ni535       O538   1.929       .  S
Ni535       O540   1.899       .  S
C536        O546   1.270       .  A
C536        C974   1.475       .  S
O537       Ni553   1.912       .  S
O537        C543   1.270       .  A
O538        C543   1.275       .  A
C539       C1012   1.484       .  S
O540        C542   1.269       .  A
O541       Ni552   1.927       .  S
C542        O548   1.280       .  A
C542       C1028   1.478       .  S
C543        C956   1.480       .  S
H544        O545   0.967       .  S
O545       Ni553   1.909       .  S
O545       Ni547   1.908       .  S
O545       Ni552   1.919       .  S
O546       Ni547   1.928       .  S
Ni547       O551   1.905       .  S
Ni547       O549   1.922       .  S
O548       Ni553   1.949       .  S
C550        O551   1.265       .  A
C550        C992   1.480       .  S
C555        C556   1.535       .  S
C555        C561   1.530       .  S
C555        C559   1.531       .  S
C555       C1046   1.516       .  S
C556        H563   1.083       .  S
C556        C557   1.372       .  D
C557        C558   1.546       .  S
C557        C940   1.494       .  S
C558        C562   1.547       .  S
C558        C560   1.552       .  S
C558        H564   1.109       .  S
C559        H565   1.087       .  S
C559        C560   1.366       .  D
C560       C1030   1.493       .  S
C561        H566   1.083       .  S
C561        C562   1.369       .  D
C562       C1010   1.497       .  S
C567        C568   1.536   1_565  S
C567        C573   1.530       .  S
C567       C1627   1.534   1_565  S
C567        C958   1.512       .  S
C568        H575   1.084   1_545  S
C569       C1626   1.540       .  S
C569        C994   1.488       .  S
C570       C1625   1.539       .  S
C570        C572   1.538       .  S
C570        H576   1.111       .  S
C571       C1623   1.533   1_545  S
C571        H577   1.085       .  S
C572        C976   1.487       .  S
C573        H578   1.084       .  S
C573       C1630   1.369   1_565  D
C574       C1629   1.368   1_545  D
C574        C920   1.495       .  S
O579        C600   1.274       .  A
O580       Ni603   1.899       .  S
O580        C589   1.265       .  A
O581       Ni585   1.929       .  S
O581      Ni1659   1.916   1_455  S
O581        H604   0.966       .  S
C582        O599   1.271       .  A
C582        O591   1.278       .  A
C582        C884   1.475       .  S
O583        C589   1.276       .  A
O584       Ni602   1.913       .  S
O584        C586   1.271       .  A
Ni585       O588   1.938       .  S
Ni585       O590   1.904       .  S
C586       O1652   1.273       .  A
C586        C848   1.483       .  S
O587       Ni603   1.903       .  S
O587        C593   1.268       .  A
O588       C1649   1.274   1_455  A
C589        C866   1.481       .  S
O590        C592   1.272       .  A
O591      Ni1658   1.935   1_455  S
C592        O598   1.276       .  A
C592        C904   1.479       .  S
C593       O1644   1.276       .  A
C593        C830   1.480       .  S
H594        O595   0.966       .  S
O595      Ni1131   1.904   1_455  S
O595       Ni597   1.904       .  S
O595      Ni1658   1.925   1_455  S
O596       Ni597   1.924       .  S
O596       C1642   1.270   1_455  A
Ni597       O601   1.897       .  S
Ni597       O599   1.905       .  S
O598      Ni1659   1.943   1_455  S
C600        O601   1.263       .  A
C600        C814   1.480       .  S
Ni602      O1647   1.936       .  S
Ni602      O1651   1.925       .  S
Ni603      O1654   1.941       .  S
Ni603      O1637   1.913       .  S
Ni603      O1123   1.904   1_565  S
C605        C606   1.539       .  S
C605        C611   1.532       .  S
C605        C609   1.536       .  S
C605        C832   1.513       .  S
C606        H613   1.084       .  S
C606        C607   1.373       .  D
C607        C608   1.540       .  S
C607        C812   1.490       .  S
C608        C612   1.541       .  S
C608        C610   1.540       .  S
C608        H614   1.111       .  S
C609        H615   1.085       .  S
C609        C610   1.369       .  D
C610        C850   1.490       .  S
C611        H616   1.084       .  S
C611        C612   1.366       .  D
C612        C794   1.490       .  S
C617        C618   1.533       .  S
C617        C623   1.534       .  S
C617        C621   1.537       .  S
C617        C886   1.511       .  S
C618        H625   1.087       .  S
C618        C619   1.362       .  D
C619        C620   1.541       .  S
C619        C902   1.478       .  S
C620        C624   1.539       .  S
C620        C622   1.543       .  S
C620        H626   1.110       .  S
C621        H627   1.084       .  S
C621        C622   1.372       .  D
C622        C868   1.491       .  S
C623        H628   1.084       .  S
C623        C624   1.369       .  D
C624        C938   1.490       .  S
O629       Ni635   1.939       .  S
O629        C650   1.275       .  A
O630       Ni653   1.895       .  S
O630        C639   1.262       .  A
O631       Ni635   1.928       .  S
O631       Ni653   1.909       .  S
O631       Ni647   1.916       .  S
O631        H654   0.966       .  S
C632        O649   1.270       .  A
C632        O641   1.275       .  A
C632        C706   1.480       .  S
O633       Ni652   1.938       .  S
O633        C639   1.273       .  A
O634       Ni652   1.902       .  S
O634        C636   1.270       .  A
Ni635       O638   1.941       .  S
Ni635       O640   1.910       .  S
C636        O646   1.273       .  A
C636        C776   1.479       .  S
O637       Ni653   1.900       .  S
O637        C643   1.267       .  A
O638        C643   1.276       .  A
C639        C724   1.476       .  S
O640        C642   1.271       .  A
O641       Ni652   1.929       .  S
C642        O648   1.272       .  A
C642        C688   1.476       .  S
C643        C758   1.479       .  S
H644        O645   0.966       .  S
O645       Ni653   1.908       .  S
O645       Ni647   1.912       .  S
O645       Ni652   1.926       .  S
O646       Ni647   1.935       .  S
Ni647       O651   1.900       .  S
Ni647       O649   1.911       .  S
O648       Ni653   1.930       .  S
C650        O651   1.266       .  A
C650        C740   1.480       .  S
C655        C656   1.529       .  S
C655        C661   1.534   1_655  S
C655       C1715   1.533       .  S
C655        C704   1.511   1_655  S
C656        H663   1.084   1_655  S
C656        C657   1.370       .  D
C657       C1186   1.545       .  S
C657        C922   1.492       .  S
C658       C1185   1.547       .  S
C658       C1718   1.541       .  S
C658        C660   1.541       .  S
C658        H664   1.111       .  S
C659       C1711   1.531       .  S
C659        H665   1.085       .  S
C660        C686   1.488       .  S
C661        H666   1.084       .  S
C662       C1714   1.540   1_455  S
C662        C722   1.487       .  S
C667        C668   1.535       .  S
C667        C673   1.530       .  S
C667        C671   1.532       .  S
C667        C760   1.511       .  S
C668        H675   1.083       .  S
C668        C669   1.373       .  D
C669        C670   1.543       .  S
C669        C742   1.491       .  S
C670        C674   1.543       .  S
C670        C672   1.544       .  S
C670        H676   1.110       .  S
C671        H677   1.087       .  S
C671        C672   1.363       .  D
C672        C778   1.483       .  S
C673        H678   1.084       .  S
C673        C674   1.368       .  D
C674        C796   1.490       .  S
C679        C687   1.488       .  S
C679        C680   1.404       .  A
C679        C684   1.407       .  A
C680        C681   1.402       .  A
C680        H689   1.083       .  S
C681        C682   1.408       .  A
C681        H690   1.082       .  S
C682        C685   1.485       .  S
C682        C683   1.403       .  A
C683        C684   1.396       .  A
C683        H691   1.084       .  S
C684        H692   1.082       .  S
C685        H693   1.086       .  S
C685        C686   1.348       .  D
C686        H694   1.085       .  S
C687        H695   1.087       .  S
C687        C688   1.346       .  D
C688        H696   1.085       .  S
C697        C705   1.487       .  S
C697        C698   1.403       .  A
C697        C702   1.408       .  A
C698        C699   1.397       .  A
C698        H707   1.083       .  S
C699        C700   1.406       .  A
C699        H708   1.082       .  S
C700        C703   1.486       .  S
C700        C701   1.404       .  A
C701        C702   1.401       .  A
C701        H709   1.083       .  S
C702        H710   1.081       .  S
C703        H711   1.087       .  S
C703        C704   1.346       .  D
C704        H712   1.085   1_455  S
C705        H713   1.087       .  S
C705        C706   1.348       .  D
C706        H714   1.085       .  S
C715        C723   1.490       .  S
C715        C716   1.404       .  A
C715        C720   1.410       .  A
C716        C717   1.398       .  A
C716        H725   1.083       .  S
C717        C718   1.407       .  A
C717        H726   1.081       .  S
C718        C721   1.486       .  S
C718        C719   1.402       .  A
C719        C720   1.398       .  A
C719        H727   1.084       .  S
C720        H728   1.080       .  S
C721        C722   1.347       .  D
C722        H730   1.084       .  S
C723        H731   1.087       .  S
C723        C724   1.346       .  D
C724        H732   1.083       .  S
C733        C741   1.492       .  S
C733        C734   1.404       .  A
C733        C738   1.408       .  A
C734        C735   1.398       .  A
C734        H743   1.084       .  S
C735        C736   1.408       .  A
C735        H744   1.080       .  S
C736        C739   1.492       .  S
C736        C737   1.405       .  A
C737        C738   1.400       .  A
C737        H745   1.083       .  S
C738        H746   1.080       .  S
C739        H747   1.087       .  S
C739        C740   1.348       .  D
C740        H748   1.083       .  S
C741        H749   1.083       .  S
C741        C742   1.350       .  D
C742        H750   1.082       .  S
C751        C759   1.484       .  S
C751        C752   1.401       .  A
C751        C756   1.407       .  A
C752        C753   1.399       .  A
C752        H761   1.083       .  S
C754        C757   1.489       .  S
C755        C756   1.398       .  A
C755        H763   1.083       .  S
C756        H764   1.082       .  S
C757        H765   1.087       .  S
C757        C758   1.346       .  D
C758        H766   1.085       .  S
C759        H767   1.087       .  S
C759        C760   1.344       .  D
C760        H768   1.086       .  S
C769        C777   1.486       .  S
C769       C1826   1.404       .  A
C769        C774   1.405       .  A
C770       C1825   1.403       .  A
C770        C771   1.403   1_655  A
C770        H779   1.083       .  S
C771        C772   1.408       .  A
C771        H780   1.082       .  S
C772        C775   1.483       .  S
C772        C773   1.402   1_455  A
C773       C1830   1.394       .  A
C773        H781   1.084       .  S
C774       C1829   1.396       .  A
C774        H782   1.083       .  S
C775        H783   1.087       .  S
C775        C776   1.346       .  D
C776        H784   1.086       .  S
C777        H785   1.086       .  S
C777        C778   1.344       .  D
C778        H786   1.087       .  S
C787        C795   1.489       .  S
C787        C788   1.405       .  A
C787        C792   1.407       .  A
C788        C789   1.398       .  A
C788        H797   1.083       .  S
C789        C790   1.406       .  A
C789        H798   1.081       .  S
C790        C793   1.488       .  S
C790        C791   1.405       .  A
C791        C792   1.399       .  A
C791        H799   1.083       .  S
C792        H800   1.081       .  S
C793        H801   1.084       .  S
C793        C794   1.351       .  D
C794        H802   1.084       .  S
C795        H803   1.084       .  S
C795        C796   1.350       .  D
C796        H804   1.083       .  S
C805        C813   1.494       .  S
C805        C806   1.404       .  A
C805        C810   1.410       .  A
C806        C807   1.399       .  A
C806        H815   1.083       .  S
C807        C808   1.409       .  A
C807        H816   1.081       .  S
C808        C811   1.493       .  S
C808        C809   1.404       .  A
C809        C810   1.400       .  A
C809        H817   1.083       .  S
C810        H818   1.079       .  S
C811        H819   1.084       .  S
C811        C812   1.348       .  D
C812        H820   1.083       .  S
C813        H821   1.087       .  S
C813        C814   1.347       .  D
C814        H822   1.083       .  S
C823        C831   1.488       .  S
C823        C824   1.403       .  A
C823        C828   1.408       .  A
C824        C825   1.401       .  A
C824        H833   1.083       .  S
C825        C826   1.409       .  A
C825        H834   1.081       .  S
C826        C829   1.489       .  S
C826        C827   1.403       .  A
C827        C828   1.398       .  A
C827        H835   1.083       .  S
C828        H836   1.082       .  S
C829       H1893   1.087       .  S
C829        C830   1.346       .  D
C830        H838   1.085       .  S
C831        H839   1.087       .  S
C831        C832   1.345       .  D
C832        H840   1.086       .  S
H837       C1885   1.087   1_455  S
C841        C849   1.491       .  S
C841        C842   1.404       .  A
C841        C846   1.408       .  A
C842        C843   1.401       .  A
C842        H851   1.083       .  S
C843        C844   1.408       .  A
C843        H852   1.082       .  S
C844        C847   1.491       .  S
C844        C845   1.404       .  A
C845        C846   1.401       .  A
C845        H853   1.083       .  S
C846        H854   1.082       .  S
C847        H855   1.087       .  S
C847        C848   1.348       .  D
C848        H856   1.086       .  S
C849        H857   1.086       .  S
C849        C850   1.348       .  D
C850        H858   1.085       .  S
C859        C867   1.492       .  S
C859        C860   1.405       .  A
C859        C864   1.409       .  A
C860        C861   1.400       .  A
C860        H869   1.083       .  S
C861        C862   1.408       .  A
C861        H870   1.081       .  S
C862        C865   1.492       .  S
C862        C863   1.404       .  A
C863        C864   1.401       .  A
C863        H871   1.083       .  S
C864        H872   1.081       .  S
C865        H873   1.087       .  S
C865        C866   1.347       .  D
C866        H874   1.085       .  S
C867        H875   1.084       .  S
C867        C868   1.350       .  D
C868        H876   1.083       .  S
C877        C885   1.489       .  S
C877        C878   1.403       .  A
C877        C882   1.410       .  A
C878        C879   1.397       .  A
C878        H887   1.083       .  S
C879        C880   1.407       .  A
C879        H888   1.082       .  S
C880        C883   1.484       .  S
C880        C881   1.401       .  A
C881        C882   1.398       .  A
C881        H889   1.083       .  S
C882        H890   1.080       .  S
C883        H891   1.087       .  S
C883        C884   1.344       .  D
C884        H892   1.086       .  S
C885        H893   1.088       .  S
C885        C886   1.346       .  D
C886        H894   1.083       .  S
C895        C903   1.483       .  S
C895        C896   1.403       .  A
C895        C900   1.408       .  A
C896        C897   1.395       .  A
C896        H905   1.083       .  S
C897        C898   1.404       .  A
C897        H906   1.083       .  S
C898        C901   1.481       .  S
C898        C899   1.403       .  A
C899        C900   1.401       .  A
C899        H907   1.083       .  S
C900        H908   1.082       .  S
C901        H909   1.086       .  S
C901        C902   1.343       .  D
C902        H910   1.087       .  S
C903        H911   1.087       .  S
C903        C904   1.346       .  D
C904        H912   1.086       .  S
C913        C921   1.490       .  S
C913        C914   1.406       .  A
C913       C1446   1.406   1_545  A
C914        C915   1.399   1_554  A
C914        H923   1.084       .  S
C915        H924   1.080       .  S
C916       C1975   1.490       .  S
C916       C1973   1.406   1_455  A
C917       C1972   1.406       .  A
C917        C918   1.400   1_556  A
C917        H925   1.083       .  S
C918       C1441   1.407       .  A
C918        H926   1.081       .  S
C919       C1972   1.489       .  S
C919        H927   1.083       .  S
C919       C1448   1.352       .  D
C920        H928   1.083       .  S
C920       C1447   1.353   1_545  D
C921        H929   1.082       .  S
C922       H1986   1.083       .  S
H930       C1978   1.083       .  S
C931        C939   1.492       .  S
C931        C932   1.406       .  A
C931        C936   1.407       .  A
C932        C933   1.400       .  A
C932        H941   1.083       .  S
C933        C934   1.407       .  A
C933        H942   1.081       .  S
C934        C937   1.490       .  S
C934        C935   1.405       .  A
C935        C936   1.400       .  A
C935        H943   1.083       .  S
C936        H944   1.081       .  S
C937        H945   1.084       .  S
C937        C938   1.350       .  D
C938        H946   1.083       .  S
C939        H947   1.083       .  S
C939        C940   1.352       .  D
C940        H948   1.083       .  S
C949        C957   1.484       .  S
C949        C950   1.403       .  A
C949        C954   1.406       .  A
C950        C951   1.401       .  A
C950        H959   1.083       .  S
C951        C952   1.409       .  A
C951        H960   1.082       .  S
C952        C955   1.487       .  S
C952        C953   1.403       .  A
C953        C954   1.397       .  A
C953        H961   1.083       .  S
C954        H962   1.082       .  S
C955        H963   1.087       .  S
C955        C956   1.346       .  D
C956        H964   1.086       .  S
C957        H965   1.087       .  S
C957        C958   1.346       .  D
C958       H2022   1.086       .  S
H966       C2014   1.086   1_455  S
C967        C975   1.487       .  S
C967        C968   1.402       .  A
C967        C972   1.409       .  A
C968        C969   1.395       .  A
C968        H977   1.084       .  S
C969        C970   1.409       .  A
C969        H978   1.081       .  S
C970        C973   1.490       .  S
C970        C971   1.404       .  A
C971        C972   1.402       .  A
C971        H979   1.083       .  S
C972        H980   1.081       .  S
C973        H981   1.087       .  S
C973        C974   1.345       .  D
C974        H982   1.085       .  S
C975        H983   1.086       .  S
C975        C976   1.346       .  D
C976        H984   1.084       .  S
C985        C993   1.493       .  S
C985        C986   1.405       .  A
C985        C990   1.409       .  A
C986        C987   1.401       .  A
C986        H995   1.083       .  S
C987        C988   1.408       .  A
C987        H996   1.082       .  S
C988        C991   1.488       .  S
C988        C989   1.402       .  A
C989        C990   1.398       .  A
C989        H997   1.083       .  S
C990        H998   1.080       .  S
C991        H999   1.087       .  S
C991        C992   1.347       .  D
C992       H1000   1.085       .  S
C993       H1001   1.085       .  S
C993        C994   1.349       .  D
C994       H1002   1.082       .  S
C1003      C1011   1.491       .  S
C1003      C1004   1.407       .  A
C1003      C1008   1.405       .  A
C1004      C1005   1.401       .  A
C1004      H1013   1.083       .  S
C1005      C1006   1.407       .  A
C1005      H1014   1.080       .  S
C1006      C1009   1.494       .  S
C1006      C1007   1.407       .  A
C1007      C1008   1.399       .  A
C1007      H1015   1.083       .  S
C1008      H1016   1.080       .  S
C1009      H1017   1.082       .  S
C1009      C1010   1.355       .  D
C1010      H1018   1.083       .  S
C1011      H1019   1.087       .  S
C1011      C1012   1.353       .  D
C1012      H1020   1.084       .  S
C1021      C1029   1.498       .  S
C1021      C1022   1.404       .  A
C1021      C1026   1.412       .  A
C1022      C2079   1.401       .  A
C1022      H1031   1.083       .  S
C1023      C2078   1.401       .  A
C1023      C1024   1.409       .  A
C1023      H1032   1.082       .  S
C1024      C1027   1.492       .  S
C1024      C1025   1.402       .  A
C1025      C2082   1.402       .  A
C1025      H1033   1.083       .  S
C1026      C2081   1.404       .  A
C1026      H1034   1.081       .  S
C1027      H1035   1.087       .  S
C1027      C1028   1.344       .  D
C1028      H1036   1.086       .  S
C1029      H1037   1.085       .  S
C1029      C1030   1.348       .  D
C1030      H1038   1.085       .  S
C1039      C1047   1.486       .  S
C1040      C1041   1.402       .  A
C1040      H1049   1.083       .  S
C1041      C1042   1.409   1_545  A
C1041      H1050   1.082   1_545  S
C1042      C1045   1.488       .  S
C1042      C1043   1.404       .  A
C1043      C1044   1.398   1_565  A
C1043      H1051   1.083       .  S
C1045      H1053   1.087       .  S
C1045      C1046   1.348       .  D
C1046      H1054   1.085       .  S
C1047      H1055   1.086       .  S
C1047      C1048   1.342       .  D
C1048      H1056   1.088       .  S
O1057     Ni1063   1.933       .  S
O1057      C1078   1.272       .  A
O1058     Ni1081   1.910       .  S
O1058      C1067   1.268       .  A
O1059     Ni1063   1.926       .  S
O1059     Ni1081   1.922       .  S
O1059     Ni1075   1.933       .  S
O1059      H1082   0.966       .  S
C1060      O1077   1.274       .  A
C1060      O1069   1.271       .  A
C1060      C1576   1.470       .  S
O1061     Ni1080   1.925       .  S
O1061      C1067   1.270       .  A
O1062     Ni1080   1.906       .  S
O1062      C1064   1.269       .  A
Ni1063     O1066   1.940       .  S
Ni1063     O1068   1.897       .  S
C1064      O1074   1.273       .  A
C1064      C1502   1.479       .  S
O1065     Ni1081   1.897       .  S
O1065      C1071   1.263       .  A
O1066      C1071   1.273       .  A
C1067      C1540   1.480       .  S
O1068      C1070   1.270       .  A
O1069     Ni1080   1.922       .  S
C1070      O1076   1.282       .  A
C1070      C1556   1.479       .  S
C1071      C1484   1.478       .  S
H1072      O1073   0.967       .  S
O1073     Ni1081   1.901       .  S
O1073     Ni1075   1.907       .  S
O1073     Ni1080   1.922       .  S
O1074     Ni1075   1.939       .  S
Ni1075     O1079   1.909       .  S
Ni1075     O1077   1.918       .  S
O1076     Ni1081   1.960       .  S
C1078      O1079   1.267       .  A
C1078      C1520   1.486       .  S
C1083      C1084   1.534       .  S
C1083      C1089   1.529       .  S
C1083      C1087   1.530       .  S
C1083      C1574   1.512       .  S
C1084      H1091   1.084       .  S
C1084      C1085   1.372       .  D
C1085      C1086   1.544       .  S
C1085      C1468   1.492       .  S
C1086      C1090   1.544       .  S
C1086      C1088   1.550       .  S
C1086      H1092   1.109       .  S
C1087      H1093   1.087       .  S
C1087      C1088   1.364       .  D
C1088      C1558   1.488       .  S
C1089      H1094   1.085       .  S
C1089      C1090   1.367       .  D
C1090      C1538   1.488       .  S
C1095      C1096   1.538   1_455  S
C1095      C1101   1.532       .  S
C1095      C1486   1.512       .  S
C1096      H1103   1.084       .  S
C1096      C1625   1.372   1_655  D
C1097      C1624   1.373   1_455  D
C1097      C1522   1.495   1_455  S
C1098      C1630   1.546       .  S
C1098      C1100   1.539       .  S
C1098      H1104   1.111       .  S
C1099      H1105   1.085       .  S
C1099      C1628   1.368       .  D
C1100      C1627   1.368       .  D
C1100      C1504   1.489       .  S
C1101      H1106   1.084       .  S
C1102      C1626   1.545       .  S
C1102      C1448   1.492       .  S
O1107     Ni1641   1.941   1_545  S
O1107      C1128   1.274       .  A
O1108     Ni1131   1.900       .  S
O1108      C1117   1.266       .  A
O1109     Ni1113   1.930       .  S
O1109     Ni1653   1.912       .  S
O1109      H1132   0.966       .  S
C1110      O1127   1.271       .  A
C1110      O1119   1.278       .  A
C1110      C1412   1.479       .  S
O1111     Ni1658   1.949       .  S
O1111      C1117   1.277       .  A
O1112     Ni1130   1.911       .  S
O1112      C1114   1.271   1_655  A
Ni1113     O1635   1.945       .  S
Ni1113     O1116   1.933       .  S
Ni1113     O1118   1.907       .  S
C1114      C1376   1.478   1_455  S
O1115     Ni1131   1.907       .  S
O1115      C1121   1.269       .  A
C1117      C1394   1.483       .  S
O1118      C1120   1.271       .  A
C1120      O1126   1.275       .  A
C1120      C1432   1.483       .  S
C1121      C1358   1.482       .  S
H1122      O1123   0.966   1_565  S
O1123     Ni1125   1.906       .  S
O1124     Ni1125   1.928       .  S
Ni1125     O1129   1.900       .  S
Ni1125     O1127   1.904       .  S
Ni1125     O1637   1.913   1_545  S
C1128      O1129   1.264       .  A
C1128      C1342   1.481       .  S
Ni1130     O1639   1.944   1_545  S
C1133      C1134   1.537       .  S
C1133      C1139   1.533       .  S
C1133      C1137   1.535       .  S
C1133      C1360   1.514       .  S
C1134      H1141   1.084       .  S
C1134      C1135   1.371       .  D
C1135      C1136   1.539       .  S
C1135      C1340   1.488       .  S
C1136      C1140   1.542       .  S
C1136      C1138   1.541       .  S
C1136      H1142   1.111       .  S
C1137      H1143   1.085       .  S
C1137      C1138   1.371       .  D
C1138      C1378   1.489       .  S
C1139      H1144   1.083       .  S
C1139      C1140   1.368       .  D
C1140      C1322   1.494       .  S
C1145      C1146   1.532       .  S
C1145      C1151   1.532       .  S
C1145      C1149   1.536       .  S
C1145      C1414   1.514       .  S
C1146      H1153   1.087       .  S
C1146      C1147   1.363       .  D
C1147      C1148   1.544       .  S
C1147      C1430   1.484       .  S
C1148      C1152   1.544       .  S
C1148      C1150   1.545       .  S
C1148      H1154   1.110       .  S
C1149      H1155   1.083       .  S
C1149      C1150   1.373       .  D
C1150      C1396   1.494       .  S
C1151      H1156   1.084       .  S
C1151      C1152   1.370       .  D
C1152      C1466   1.493       .  S
O1157     Ni1163   1.945       .  S
O1157      C1178   1.276       .  A
O1158     Ni1181   1.904       .  S
O1158      C1167   1.265       .  A
O1159     Ni1163   1.927       .  S
O1159     Ni1181   1.912       .  S
O1159     Ni1175   1.908       .  S
O1159      H1182   0.966       .  S
C1160      O1177   1.268       .  A
C1160      O1169   1.275       .  A
C1160      C1234   1.475       .  S
O1161     Ni1180   1.940       .  S
O1161      C1167   1.273       .  A
O1162     Ni1180   1.904       .  S
O1162      C1164   1.271       .  A
Ni1163     O1166   1.940       .  S
Ni1163     O1168   1.917       .  S
C1164      O1174   1.276       .  A
C1164      C1304   1.486       .  S
O1165     Ni1181   1.897       .  S
O1165      C1171   1.267       .  A
O1166      C1171   1.277       .  A
C1167      C1252   1.483       .  S
O1168      C1170   1.272       .  A
O1169     Ni1180   1.928       .  S
C1170      O1176   1.273       .  A
C1170      C1216   1.482       .  S
C1171      C1286   1.475       .  S
H1172      O1173   0.966       .  S
O1173     Ni1181   1.907       .  S
O1173     Ni1175   1.916       .  S
O1173     Ni1180   1.925       .  S
O1174     Ni1175   1.943       .  S
Ni1175     O1179   1.906       .  S
Ni1175     O1177   1.903       .  S
O1176     Ni1181   1.934       .  S
C1178      O1179   1.267       .  A
C1178      C1268   1.487       .  S
C1183      C1184   1.529       .  S
C1183      C1189   1.535       .  S
C1183      C1232   1.508       .  S
C1184      H1191   1.084       .  S
C1184      C1185   1.369   1_545  D
C1185      C1450   1.496       .  S
C1186      C1188   1.542       .  S
C1186      H1192   1.111       .  S
C1187      H1193   1.085       .  S
C1187      C1716   1.367   1_545  D
C1188      C1715   1.368       .  D
C1188      C1214   1.491       .  S
C1189      H1194   1.084       .  S
C1189      C1718   1.372   1_545  D
C1190      C1717   1.373       .  D
C1190      C1250   1.495       .  S
C1195      C1196   1.535       .  S
C1195      C1201   1.528       .  S
C1195      C1199   1.529       .  S
C1195      C1288   1.510       .  S
C1196      H1203   1.084       .  S
C1196      C1197   1.373       .  D
C1197      C1198   1.547       .  S
C1197      C1270   1.495       .  S
C1198      C1202   1.546       .  S
C1198      C1200   1.545       .  S
C1198      H1204   1.110       .  S
C1199      H1205   1.087       .  S
C1199      C1200   1.363       .  D
C1200      C1306   1.480       .  S
C1201      H1206   1.083       .  S
C1201      C1202   1.368       .  D
C1202      C1324   1.496       .  S
C1207      C1215   1.494       .  S
C1207      C1208   1.405       .  A
C1207      C1212   1.408       .  A
C1208      C1209   1.403       .  A
C1208      H1217   1.083       .  S
C1209      C1210   1.409       .  A
C1209      H1218   1.081       .  S
C1210      C1213   1.491       .  S
C1210      C1211   1.404       .  A
C1211      C1212   1.398       .  A
C1211      H1219   1.084       .  S
C1212      H1220   1.081       .  S
C1213      H1221   1.086       .  S
C1213      C1214   1.349       .  D
C1214      H1222   1.084       .  S
C1215      H1223   1.087       .  S
C1215      C1216   1.348       .  D
C1216      H1224   1.085       .  S
C1225      C1233   1.482       .  S
C1225      C1226   1.401       .  A
C1225      C1230   1.408       .  A
C1226      C1227   1.395       .  A
C1226      H1235   1.084       .  S
C1227      C1228   1.407       .  A
C1227      H1236   1.082       .  S
C1228      C1231   1.484       .  S
C1228      C1229   1.403       .  A
C1229      C1230   1.400       .  A
C1229      H1237   1.083       .  S
C1230      H1238   1.082       .  S
C1231      H1239   1.087       .  S
C1231      C1232   1.344       .  D
C1232      H1240   1.085       .  S
C1233      H1241   1.087       .  S
C1233      C1234   1.344       .  D
C1234      H1242   1.085       .  S
C1243      C1251   1.496       .  S
C1243      C1244   1.406       .  A
C1243      C1248   1.408       .  A
C1244      C1245   1.403       .  A
C1244      H1253   1.083       .  S
C1245      C1246   1.409       .  A
C1245      H1254   1.080       .  S
C1246      C1249   1.495       .  S
C1246      C1247   1.405       .  A
C1247      C1248   1.399       .  A
C1247      H1255   1.083       .  S
C1248      H1256   1.080       .  S
C1249      H1785   1.083       .  S
C1249      C1250   1.351       .  D
C1250      H1258   1.082       .  S
C1251      H1259   1.087       .  S
C1251      C1252   1.350       .  D
C1252      H1260   1.084       .  S
H1257      C1777   1.083       .  S
C1261      C1269   1.495       .  S
C1261      C1262   1.406       .  A
C1261      C1266   1.408       .  A
C1262      C1263   1.402       .  A
C1262      H1271   1.083       .  S
C1263      C1264   1.409       .  A
C1263      H1272   1.081       .  S
C1264      C1267   1.496       .  S
C1264      C1265   1.406       .  A
C1265      C1266   1.402       .  A
C1265      H1273   1.083       .  S
C1266      H1274   1.081       .  S
C1267      H1275   1.087       .  S
C1267      C1268   1.351       .  D
C1268      H1276   1.084       .  S
C1269      H1277   1.084       .  S
C1269      C1270   1.352       .  D
C1270      H1278   1.084       .  S
C1279      C1287   1.485       .  S
C1279      C1280   1.401       .  A
C1279      C1284   1.408       .  A
C1280      C1281   1.399   1_545  A
C1280      H1289   1.083       .  S
C1281      C1810   1.411       .  A
C1281      H1818   1.080       .  S
C1282      C1285   1.483       .  S
C1282      C1809   1.407       .  A
C1282      C1811   1.401       .  A
C1283      C1810   1.402       .  A
C1283      C1284   1.397   1_565  A
C1283      H1291   1.083       .  S
C1284      H1292   1.082       .  S
C1285      H1293   1.087       .  S
C1285      C1286   1.344       .  D
C1286      H1294   1.086       .  S
C1287      H1295   1.087       .  S
C1287      C1288   1.344       .  D
C1288      H1296   1.085       .  S
H1290      C1809   1.082       .  S
C1297      C1305   1.484       .  S
C1297      C1302   1.405       .  A
C1298      C1299   1.405       .  A
C1298      H1307   1.083       .  S
C1299      C1300   1.408       .  A
C1299      H1308   1.082       .  S
C1300      C1303   1.488       .  S
C1300      C1301   1.404       .  A
C1301      H1309   1.084       .  S
C1302      H1310   1.083       .  S
C1303      H1311   1.087       .  S
C1303      C1304   1.350       .  D
C1304      H1312   1.085       .  S
C1305      H1313   1.086       .  S
C1305      C1306   1.343       .  D
C1306      H1314   1.087       .  S
C1315      C1323   1.492       .  S
C1315      C1316   1.407       .  A
C1315      C1320   1.407       .  A
C1316      C1317   1.398       .  A
C1316      H1325   1.084       .  S
C1317      C1318   1.405       .  A
C1317      H1326   1.081       .  S
C1318      C1321   1.490       .  S
C1318      C1319   1.406       .  A
C1319      C1320   1.401       .  A
C1319      H1327   1.083       .  S
C1320      H1328   1.080       .  S
C1321      H1329   1.082       .  S
C1321      C1322   1.352       .  D
C1322      H1330   1.084       .  S
C1323      H1331   1.082       .  S
C1323      C1324   1.354       .  D
C1324      H1332   1.082       .  S
C1333      C1341   1.493       .  S
C1333      C1334   1.405       .  A
C1333      C1338   1.410       .  A
C1334      C1335   1.399       .  A
C1334      H1343   1.083       .  S
C1335      C1336   1.407       .  A
C1335      H1344   1.081       .  S
C1336      C1339   1.490       .  S
C1336      C1337   1.404       .  A
C1337      C1338   1.400       .  A
C1337      H1345   1.084       .  S
C1338      H1346   1.080       .  S
C1339      H1347   1.084       .  S
C1339      C1340   1.348       .  D
C1340      H1348   1.084       .  S
C1341      H1349   1.087       .  S
C1341      C1342   1.348       .  D
C1342      H1350   1.083       .  S
C1351      C1359   1.488       .  S
C1351      C1352   1.404       .  A
C1351      C1356   1.407       .  A
C1352      C1353   1.402       .  A
C1352      H1361   1.083       .  S
C1353      C1354   1.409       .  A
C1353      H1362   1.081       .  S
C1354      C1357   1.489       .  S
C1354      C1355   1.403       .  A
C1355      C1356   1.397       .  A
C1355      H1363   1.083       .  S
C1356      H1364   1.082       .  S
C1357      C1358   1.347       .  D
C1358      H1366   1.085       .  S
C1359      H1367   1.087       .  S
C1359      C1360   1.346       .  D
C1360      H1368   1.086       .  S
C1369      C1377   1.489       .  S
C1369      C1370   1.404       .  A
C1369      C1374   1.408       .  A
C1370      C1371   1.399       .  A
C1370      H1379   1.083       .  S
C1371      C1372   1.408       .  A
C1371      H1380   1.082   1_655  S
C1372      C1375   1.488       .  S
C1372      C1373   1.403       .  A
C1373      C1374   1.400       .  A
C1373      H1381   1.083       .  S
C1374      H1382   1.082       .  S
C1375      H1383   1.087       .  S
C1375      C1376   1.345       .  D
C1376      H1384   1.086   1_655  S
C1377      H1385   1.085       .  S
C1377      C1378   1.348       .  D
C1378      H1386   1.085       .  S
C1387      C1395   1.494       .  S
C1387      C1388   1.404       .  A
C1387      C1392   1.408       .  A
C1388      C1389   1.401       .  A
C1388      H1397   1.084       .  S
C1389      C1390   1.411       .  A
C1389      H1398   1.079       .  S
C1390      C1393   1.499       .  S
C1390      C1391   1.406       .  A
C1391      C1392   1.401       .  A
C1391      H1399   1.083       .  S
C1392      H1400   1.081       .  S
C1393      H1401   1.087       .  S
C1393      C1394   1.349       .  D
C1394      H1402   1.082       .  S
C1395      H1403   1.083       .  S
C1395      C1396   1.351       .  D
C1396      H1404   1.083       .  S
C1405      C1413   1.487       .  S
C1405      C1406   1.402       .  A
C1405      C1410   1.408       .  A
C1406      C1407   1.398       .  A
C1406      H1415   1.083       .  S
C1407      C1408   1.410       .  A
C1407      H1416   1.080       .  S
C1408      C1411   1.492       .  S
C1408      C1409   1.405       .  A
C1409      C1410   1.400       .  A
C1409      H1417   1.083       .  S
C1410      H1418   1.082       .  S
C1411      H1419   1.087       .  S
C1411      C1412   1.347       .  D
C1412      H1420   1.084       .  S
C1413      H1421   1.087       .  S
C1413      C1414   1.346       .  D
C1414      H1422   1.085       .  S
C1423      C1431   1.486       .  S
C1423      C1424   1.402       .  A
C1423      C1428   1.408       .  A
C1424      C1425   1.396       .  A
C1424      H1433   1.084       .  S
C1425      C1426   1.406       .  A
C1425      H1434   1.083       .  S
C1426      C1429   1.489       .  S
C1426      C1427   1.405       .  A
C1427      C1428   1.405       .  A
C1427      H1435   1.083       .  S
C1428      H1436   1.082       .  S
C1429      H1437   1.085       .  S
C1429      C1430   1.345       .  D
C1430      H1438   1.087       .  S
C1431      H1439   1.087       .  S
C1431      C1432   1.347       .  D
C1432      H1440   1.086       .  S
C1441      C1449   1.490       .  S
C1441      C1442   1.406       .  A
C1442      C1443   1.399   1_554  A
C1442      H1451   1.083       .  S
C1443      C1972   1.406       .  A
C1443      H1452   1.081       .  S
C1444      C1971   1.407       .  A
C1445      C1446   1.399   1_556  A
C1445      H1453   1.083       .  S
C1446      H1454   1.081       .  S
C1447      H1455   1.082       .  S
C1448      H1456   1.084       .  S
C1449      H1457   1.083       .  S
C1449      C1978   1.352       .  D
C1450      C1977   1.354   1_565  D
C1459      C1467   1.494       .  S
C1459      C1460   1.406       .  A
C1459      C1464   1.408       .  A
C1460      C1461   1.399       .  A
C1460      H1469   1.083       .  S
C1461      C1462   1.407       .  A
C1461      H1470   1.080       .  S
C1462      C1465   1.493       .  S
C1462      C1463   1.406       .  A
C1463      C1464   1.400       .  A
C1463      H1471   1.083       .  S
C1464      H1472   1.079       .  S
C1465      H1473   1.083       .  S
C1465      C1466   1.352       .  D
C1466      H1474   1.083       .  S
C1467      H1475   1.084       .  S
C1467      C1468   1.351       .  D
C1468      H1476   1.082       .  S
C1477      C1485   1.488       .  S
C1477      C1478   1.403       .  A
C1477      C1482   1.409       .  A
C1478      C1479   1.398       .  A
C1478      H1487   1.083       .  S
C1479      C1480   1.407       .  A
C1479      H1488   1.082       .  S
C1480      C1483   1.487       .  S
C1480      C1481   1.403       .  A
C1481      C1482   1.399       .  A
C1481      H1489   1.083       .  S
C1482      H1490   1.081   1_655  S
C1483      H1491   1.087       .  S
C1483      C1484   1.346       .  D
C1484      H1492   1.086       .  S
C1485      H1493   1.087       .  S
C1485      C1486   1.345   1_655  D
C1495      C1503   1.489       .  S
C1495      C1496   1.403       .  A
C1495      C1500   1.409       .  A
C1496      C1497   1.397       .  A
C1496      H1505   1.083       .  S
C1497      C1498   1.407       .  A
C1497      H1506   1.081       .  S
C1498      C1501   1.490       .  S
C1498      C1499   1.405       .  A
C1499      C1500   1.402       .  A
C1499      H1507   1.083       .  S
C1500      H1508   1.081       .  S
C1501      H1509   1.087       .  S
C1501      C1502   1.348       .  D
C1502      H1510   1.085       .  S
C1503      H1511   1.086       .  S
C1503      C1504   1.348       .  D
C1504      H1512   1.084       .  S
C1513      C1521   1.500       .  S
C1513      C1514   1.407       .  A
C1513      C1518   1.411       .  A
C1514      C1515   1.402       .  A
C1514      H1523   1.083       .  S
C1515      C1516   1.408       .  A
C1515      H1524   1.081       .  S
C1516      C1519   1.496       .  S
C1516      C1517   1.405       .  A
C1517      C1518   1.402       .  A
C1517      H1525   1.083       .  S
C1518      H1526   1.079       .  S
C1519      H1527   1.087       .  S
C1519      C1520   1.351       .  D
C1520      H1528   1.084       .  S
C1521      H1529   1.084       .  S
C1521      C1522   1.352       .  D
C1522      H1530   1.081       .  S
C1531      C1539   1.485       .  S
C1531      C1532   1.405       .  A
C1531      C1536   1.405       .  A
C1532      C1533   1.398       .  A
C1532      H1541   1.083       .  S
C1533      C1534   1.405       .  A
C1533      H1542   1.081       .  S
C1534      C1537   1.485       .  S
C1534      C1535   1.405       .  A
C1535      C1536   1.398       .  A
C1535      H1543   1.083       .  S
C1536      H1544   1.081       .  S
C1537      H1545   1.085       .  S
C1537      C1538   1.350       .  D
C1538      H1546   1.084       .  S
C1539      H1547   1.087       .  S
C1539      C1540   1.351       .  D
C1540      H1548   1.084       .  S
C1549      C1557   1.492       .  S
C1549      C1550   1.403       .  A
C1549      C1554   1.410       .  A
C1550      H1559   1.083       .  S
C1551      C1552   1.409       .  A
C1551      H1560   1.082       .  S
C1552      C1555   1.494       .  S
C1552      C1553   1.403       .  A
C1553      H1561   1.083       .  S
C1554      H1562   1.081       .  S
C1555      H1563   1.087       .  S
C1555      C1556   1.346       .  D
C1556      H1564   1.085       .  S
C1557      H1565   1.084       .  S
C1557      C1558   1.346       .  D
C1558      H1566   1.085       .  S
C1567      C1575   1.480       .  S
C1567      C2096   1.402       .  A
C1567      C2100   1.405       .  A
C1568      C2095   1.401       .  A
C1568      C1569   1.401       .  A
C1568      H1577   1.083       .  S
C1569      C1570   1.409       .  A
C1569      H1578   1.082       .  S
C1570      C1573   1.483       .  S
C1570      C1571   1.403       .  A
C1571      C1572   1.396       .  A
C1571      H1579   1.084       .  S
C1572      C2095   1.403       .  A
C1572      H2108   1.083       .  S
C1573      H1581   1.088       .  S
C1573      C1574   1.346       .  D
C1574      H1582   1.085       .  S
C1575      H1583   1.086       .  S
C1575      C1576   1.340       .  D
C1576      H1584   1.088       .  S
H1580      C2100   1.083       .  S
O1585     Ni1591   1.935       .  S
O1585      C1606   1.273       .  A
O1586     Ni1609   1.908       .  S
O1586      C1595   1.268       .  A
O1587     Ni1591   1.915       .  S
O1587     Ni1609   1.913       .  S
O1587     Ni1603   1.921       .  S
O1587      H1610   0.966       .  S
C1588      O1605   1.276       .  A
C1588      O1597   1.273       .  A
C1588      C2104   1.473       .  S
O1589     Ni1608   1.928       .  S
O1589      C1595   1.273       .  A
O1590     Ni1608   1.910       .  S
O1590      C1592   1.269       .  A
Ni1591     O1594   1.932       .  S
Ni1591     O1596   1.902       .  S
C1592      O1602   1.271       .  A
C1592      C2030   1.478       .  S
O1593     Ni1609   1.912       .  S
O1593      C1599   1.271       .  A
O1594      C1599   1.276       .  A
C1595      C2068   1.481       .  S
O1596      C1598   1.269       .  A
O1597     Ni1608   1.924       .  S
C1598      O1604   1.279       .  A
C1598      C2084   1.482       .  S
C1599      C2012   1.480       .  S
H1600      O1601   0.967       .  S
O1601     Ni1609   1.909       .  S
O1601     Ni1603   1.907       .  S
O1601     Ni1608   1.918       .  S
O1602     Ni1603   1.931       .  S
Ni1603     O1607   1.905       .  S
Ni1603     O1605   1.921       .  S
O1604     Ni1609   1.951       .  S
C1606      O1607   1.266       .  A
C1606      C2048   1.480       .  S
C1611      C1612   1.535       .  S
C1611      C1617   1.530       .  S
C1611      C1615   1.532       .  S
C1611      C2102   1.513       .  S
C1612      H1619   1.084       .  S
C1612      C1613   1.372       .  D
C1613      C1614   1.544       .  S
C1613      C1996   1.492       .  S
C1614      C1618   1.544       .  S
C1614      C1616   1.549       .  S
C1614      H1620   1.108       .  S
C1615      H1621   1.087       .  S
C1615      C1616   1.365       .  D
C1616      C2086   1.492       .  S
C1617      H1622   1.084       .  S
C1617      C1618   1.367       .  D
C1618      C2066   1.491       .  S
C1623      C1624   1.540   1_465  S
C1623      C1629   1.529       .  S
C1623      C2014   1.515   1_455  S
C1624      H1631   1.084   1_545  S
C1625      C2050   1.489   1_455  S
C1626      C1628   1.540       .  S
C1626      H1632   1.111       .  S
C1627      H1633   1.085       .  S
C1628      C2032   1.487       .  S
C1629      H1634   1.083       .  S
C1630      C1976   1.494       .  S
O1635      C1656   1.274       .  A
O1636     Ni1659   1.899       .  S
O1636      C1645   1.266       .  A
O1637     Ni1641   1.926       .  S
O1637      H1660   0.966       .  S
C1638      O1655   1.269       .  A
C1638      O1647   1.278       .  A
C1638      C1940   1.476       .  S
O1639      C1645   1.275       .  A
O1640     Ni1658   1.919       .  S
O1640      C1642   1.272       .  A
Ni1641     O1644   1.937       .  S
Ni1641     O1646   1.906       .  S
C1642      C1904   1.482       .  S
O1643     Ni1659   1.904       .  S
O1643      C1649   1.266       .  A
C1645      C1922   1.482       .  S
O1646      C1648   1.271       .  A
C1648      O1654   1.275       .  A
C1648      C1960   1.485       .  S
C1649      C1886   1.481       .  S
H1650      O1651   0.966       .  S
O1651     Ni1653   1.909       .  S
O1652     Ni1653   1.934       .  S
Ni1653     O1657   1.901       .  S
Ni1653     O1655   1.901       .  S
C1656      O1657   1.265       .  A
C1656      C1870   1.484       .  S
C1661      C1662   1.541       .  S
C1661      C1667   1.533       .  S
C1661      C1665   1.537       .  S
C1661      C1888   1.516       .  S
C1662      H1669   1.084       .  S
C1662      C1663   1.373       .  D
C1663      C1664   1.539       .  S
C1663      C1868   1.493       .  S
C1664      C1668   1.540       .  S
C1664      C1666   1.539       .  S
C1664      H1670   1.111       .  S
C1665      H1671   1.085       .  S
C1665      C1666   1.369       .  D
C1666      C1906   1.487       .  S
C1667      H1672   1.084       .  S
C1667      C1668   1.367       .  D
C1668      C1850   1.491       .  S
C1673      C1674   1.533       .  S
C1673      C1679   1.534       .  S
C1673      C1677   1.536       .  S
C1673      C1942   1.513       .  S
C1674      H1681   1.087       .  S
C1674      C1675   1.363       .  D
C1675      C1676   1.543       .  S
C1675      C1958   1.484       .  S
C1676      C1680   1.542       .  S
C1676      C1678   1.544       .  S
C1676      H1682   1.110       .  S
C1677      H1683   1.084       .  S
C1677      C1678   1.372       .  D
C1678      C1924   1.492       .  S
C1679      H1684   1.083       .  S
C1679      C1680   1.370       .  D
C1680      C1994   1.494       .  S
O1685     Ni1691   1.938       .  S
O1685      C1706   1.274       .  A
O1686     Ni1709   1.893       .  S
O1686      C1695   1.261       .  A
O1687     Ni1691   1.924       .  S
O1687     Ni1709   1.906       .  S
O1687     Ni1703   1.909       .  S
O1687      H1710   0.966       .  S
C1688      O1705   1.271       .  A
C1688      O1697   1.277       .  A
C1688      C1762   1.478       .  S
O1689     Ni1708   1.941       .  S
O1689      C1695   1.274       .  A
O1690     Ni1708   1.908       .  S
O1690      C1692   1.270       .  A
Ni1691     O1694   1.936       .  S
Ni1691     O1696   1.912       .  S
C1692      O1702   1.274       .  A
C1692      C1832   1.484       .  S
O1693     Ni1709   1.900       .  S
O1693      C1699   1.269       .  A
O1694      C1699   1.278       .  A
C1695      C1780   1.475       .  S
O1696      C1698   1.269       .  A
O1697     Ni1708   1.930       .  S
C1698      O1704   1.268       .  A
C1698      C1744   1.474       .  S
C1699      C1814   1.476       .  S
H1700      O1701   0.966       .  S
O1701     Ni1709   1.903       .  S
O1701     Ni1703   1.909       .  S
O1701     Ni1708   1.918       .  S
O1702     Ni1703   1.938       .  S
Ni1703     O1707   1.901       .  S
Ni1703     O1705   1.908       .  S
O1704     Ni1709   1.919       .  S
C1706      O1707   1.266       .  A
C1706      C1796   1.478       .  S
C1711      C1712   1.529       .  S
C1711      C1717   1.536       .  S
C1711      C1760   1.511       .  S
C1712      H1719   1.084       .  S
C1712      C1713   1.369       .  D
C1713      C1978   1.493       .  S
C1714      C1716   1.539       .  S
C1714      H1720   1.111       .  S
C1715      H1721   1.085       .  S
C1716      C1742   1.484       .  S
C1717      H1722   1.083       .  S
C1718      C1778   1.488       .  S
C1723      C1724   1.535       .  S
C1723      C1729   1.528       .  S
C1723      C1727   1.530       .  S
C1723      C1816   1.510       .  S
C1724      H1731   1.084       .  S
C1724      C1725   1.373       .  D
C1725      C1726   1.543       .  S
C1725      C1798   1.491       .  S
C1726      C1730   1.543       .  S
C1726      C1728   1.544       .  S
C1726      H1732   1.110       .  S
C1727      H1733   1.087       .  S
C1727      C1728   1.363       .  D
C1728      C1834   1.480       .  S
C1729      H1734   1.084       .  S
C1729      C1730   1.368       .  D
C1730      C1852   1.489       .  S
C1735      C1743   1.486       .  S
C1735      C1736   1.404       .  A
C1735      C1740   1.408       .  A
C1736      C1737   1.400       .  A
C1736      H1745   1.083       .  S
C1737      C1738   1.408       .  A
C1737      H1746   1.082       .  S
C1738      C1741   1.481       .  S
C1738      C1739   1.401       .  A
C1739      C1740   1.394       .  A
C1739      H1747   1.084       .  S
C1740      H1748   1.081       .  S
C1741      H1749   1.086       .  S
C1741      C1742   1.345       .  D
C1742      H1750   1.085       .  S
C1743      H1751   1.087       .  S
C1743      C1744   1.345       .  D
C1744      H1752   1.085       .  S
C1753      C1761   1.484       .  S
C1753      C1754   1.402       .  A
C1753      C1758   1.408       .  A
C1754      C1755   1.396       .  A
C1754      H1763   1.084       .  S
C1755      C1756   1.407       .  A
C1755      H1764   1.082       .  S
C1756      C1759   1.485       .  S
C1756      C1757   1.403       .  A
C1757      C1758   1.400       .  A
C1757      H1765   1.083       .  S
C1758      H1766   1.082       .  S
C1759      H1767   1.087       .  S
C1759      C1760   1.345       .  D
C1760      H1768   1.086       .  S
C1761      H1769   1.087       .  S
C1761      C1762   1.346       .  D
C1762      H1770   1.085       .  S
C1771      C1779   1.489       .  S
C1771      C1772   1.403       .  A
C1771      C1776   1.409       .  A
C1772      C1773   1.397       .  A
C1772      H1781   1.083       .  S
C1773      C1774   1.408       .  A
C1773      H1782   1.080       .  S
C1774      C1777   1.489       .  S
C1774      C1775   1.403       .  A
C1775      C1776   1.398       .  A
C1775      H1783   1.084       .  S
C1776      H1784   1.080       .  S
C1777      C1778   1.348       .  D
C1778      H1786   1.083       .  S
C1779      H1787   1.087       .  S
C1779      C1780   1.345       .  D
C1780      H1788   1.084       .  S
C1789      C1797   1.493       .  S
C1789      C1790   1.405       .  A
C1789      C1794   1.409       .  A
C1790      C1791   1.398       .  A
C1790      H1799   1.083       .  S
C1791      C1792   1.407       .  A
C1791      H1800   1.081       .  S
C1792      C1795   1.489       .  S
C1792      C1793   1.404       .  A
C1793      C1794   1.400       .  A
C1793      H1801   1.084       .  S
C1794      H1802   1.079       .  S
C1795      H1803   1.087       .  S
C1795      C1796   1.348       .  D
C1796      H1804   1.084       .  S
C1797      H1805   1.084       .  S
C1797      C1798   1.350       .  D
C1798      H1806   1.082       .  S
C1807      C1815   1.485       .  S
C1807      C1808   1.402       .  A
C1807      C1812   1.409       .  A
C1808      C1809   1.397       .  A
C1808      H1817   1.083       .  S
C1810      C1813   1.489       .  S
C1811      C1812   1.398       .  A
C1811      H1819   1.083       .  S
C1812      H1820   1.081       .  S
C1813      H1821   1.087       .  S
C1813      C1814   1.344       .  D
C1814      H1822   1.084       .  S
C1815      H1823   1.087       .  S
C1815      C1816   1.344       .  D
C1816      H1824   1.085       .  S
C1825      C1833   1.484       .  S
C1825      C1830   1.406       .  A
C1826      C1827   1.404       .  A
C1826      H1835   1.083       .  S
C1827      C1828   1.408       .  A
C1827      H1836   1.082       .  S
C1828      C1831   1.487       .  S
C1828      C1829   1.403       .  A
C1829      H1837   1.083       .  S
C1830      H1838   1.083       .  S
C1831      H1839   1.087       .  S
C1831      C1832   1.348       .  D
C1832      H1840   1.086       .  S
C1833      H1841   1.085       .  S
C1833      C1834   1.343       .  D
C1834      H1842   1.087       .  S
C1843      C1851   1.490       .  S
C1843      C1844   1.406       .  A
C1843      C1848   1.406       .  A
C1844      C1845   1.399       .  A
C1844      H1853   1.084       .  S
C1845      C1846   1.407       .  A
C1845      H1854   1.080       .  S
C1846      C1849   1.490       .  S
C1846      C1847   1.405       .  A
C1847      C1848   1.398       .  A
C1847      H1855   1.083       .  S
C1848      H1856   1.080       .  S
C1849      H1857   1.083       .  S
C1849      C1850   1.351       .  D
C1850      H1858   1.083       .  S
C1851      H1859   1.084       .  S
C1851      C1852   1.351       .  D
C1852      H1860   1.082       .  S
C1861      C1869   1.499       .  S
C1861      C1862   1.406       .  A
C1861      C1866   1.410       .  A
C1862      C1863   1.403       .  A
C1862      H1871   1.083       .  S
C1863      C1864   1.410       .  A
C1863      H1872   1.080       .  S
C1864      C1867   1.497       .  S
C1864      C1865   1.404       .  A
C1865      C1866   1.401       .  A
C1865      H1873   1.083       .  S
C1866      H1874   1.080       .  S
C1867      H1875   1.084       .  S
C1867      C1868   1.350       .  D
C1868      H1876   1.083       .  S
C1869      H1877   1.087       .  S
C1869      C1870   1.350       .  D
C1870      H1878   1.083       .  S
C1879      C1887   1.491       .  S
C1879      C1880   1.405       .  A
C1879      C1884   1.409       .  A
C1880      C1881   1.402       .  A
C1880      H1889   1.083       .  S
C1881      C1882   1.407       .  A
C1881      H1890   1.082       .  S
C1882      C1885   1.485       .  S
C1882      C1883   1.402       .  A
C1883      C1884   1.398       .  A
C1883      H1891   1.084       .  S
C1884      H1892   1.081       .  S
C1885      C1886   1.346       .  D
C1886      H1894   1.086       .  S
C1887      H1895   1.087       .  S
C1887      C1888   1.346       .  D
C1888      H1896   1.085       .  S
C1897      C1905   1.488       .  S
C1897      C1898   1.404       .  A
C1897      C1902   1.407       .  A
C1898      C1899   1.402       .  A
C1898      H1907   1.083       .  S
C1899      C1900   1.410       .  A
C1899      H1908   1.082   1_655  S
C1900      C1903   1.490       .  S
C1900      C1901   1.403       .  A
C1901      C1902   1.399       .  A
C1901      H1909   1.083       .  S
C1902      H1910   1.082       .  S
C1903      H1911   1.087       .  S
C1903      C1904   1.346       .  D
C1904      H1912   1.086   1_655  S
C1905      H1913   1.086       .  S
C1905      C1906   1.347       .  D
C1906      H1914   1.086       .  S
C1915      C1923   1.494       .  S
C1915      C1916   1.404       .  A
C1915      C1920   1.408       .  A
C1916      C1917   1.400       .  A
C1916      H1925   1.084       .  S
C1917      C1918   1.411       .  A
C1917      H1926   1.079       .  S
C1918      C1921   1.498       .  S
C1918      C1919   1.406       .  A
C1919      C1920   1.401       .  A
C1919      H1927   1.083       .  S
C1920      H1928   1.080       .  S
C1921      H1929   1.087       .  S
C1921      C1922   1.350       .  D
C1922      H1930   1.082       .  S
C1923      H1931   1.084       .  S
C1923      C1924   1.350       .  D
C1924      H1932   1.083       .  S
C1933      C1941   1.489       .  S
C1933      C1934   1.403       .  A
C1933      C1938   1.409       .  A
C1934      C1935   1.399       .  A
C1934      H1943   1.083       .  S
C1935      C1936   1.408       .  A
C1935      H1944   1.081       .  S
C1936      C1939   1.485       .  S
C1936      C1937   1.402       .  A
C1937      C1938   1.397       .  A
C1937      H1945   1.084       .  S
C1938      H1946   1.081       .  S
C1939      H1947   1.087       .  S
C1939      C1940   1.344       .  D
C1940      H1948   1.085       .  S
C1941      H1949   1.087       .  S
C1941      C1942   1.346       .  D
C1942      H1950   1.084       .  S
C1951      C1959   1.487       .  S
C1951      C1952   1.403       .  A
C1951      C1956   1.408       .  A
C1952      C1953   1.396       .  A
C1952      H1961   1.083       .  S
C1953      C1954   1.405       .  A
C1953      H1962   1.083       .  S
C1954      C1957   1.488       .  S
C1954      C1955   1.406       .  A
C1955      C1956   1.405       .  A
C1955      H1963   1.083       .  S
C1956      H1964   1.082       .  S
C1957      H1965   1.086       .  S
C1957      C1958   1.346       .  D
C1958      H1966   1.087       .  S
C1959      H1967   1.087       .  S
C1959      C1960   1.349       .  D
C1960      H1968   1.086       .  S
C1969      C1977   1.494       .  S
C1969      C1970   1.407       .  A
C1970      C1971   1.400   1_554  A
C1970      H1979   1.083       .  S
C1971      H1980   1.080       .  S
C1973      C1974   1.401   1_556  A
C1973      H1981   1.083       .  S
C1974      H1982   1.081       .  S
C1975      H1983   1.084   1_455  S
C1976      H1984   1.082       .  S
C1977      H1985   1.083       .  S
C1987      C1995   1.496       .  S
C1987      C1988   1.407       .  A
C1987      C1992   1.409       .  A
C1988      C1989   1.401       .  A
C1988      H1997   1.083       .  S
C1989      C1990   1.407       .  A
C1989      H1998   1.080       .  S
C1990      C1993   1.492       .  S
C1990      C1991   1.405       .  A
C1991      C1992   1.399       .  A
C1991      H1999   1.084       .  S
C1992      H2000   1.079       .  S
C1993      H2001   1.083       .  S
C1993      C1994   1.351       .  D
C1994      H2002   1.083       .  S
C1995      H2003   1.084       .  S
C1995      C1996   1.352       .  D
C1996      H2004   1.081       .  S
C2005      C2013   1.486       .  S
C2005      C2006   1.402       .  A
C2005      C2010   1.408       .  A
C2006      C2007   1.400       .  A
C2006      H2015   1.083       .  S
C2007      C2008   1.408       .  A
C2007      H2016   1.082       .  S
C2008      C2011   1.489       .  S
C2008      C2009   1.404       .  A
C2009      C2010   1.400       .  A
C2009      H2017   1.083       .  S
C2010      H2018   1.082   1_655  S
C2011      H2019   1.087       .  S
C2011      C2012   1.347       .  D
C2012      H2020   1.086       .  S
C2013      H2021   1.087       .  S
C2013      C2014   1.346       .  D
C2023      C2031   1.488       .  S
C2023      C2024   1.403       .  A
C2023      C2028   1.409       .  A
C2024      C2025   1.396       .  A
C2024      H2033   1.084       .  S
C2025      C2026   1.407       .  A
C2025      H2034   1.081       .  S
C2026      C2029   1.490       .  S
C2026      C2027   1.405       .  A
C2027      C2028   1.403       .  A
C2027      H2035   1.083       .  S
C2028      H2036   1.081       .  S
C2029      H2037   1.087       .  S
C2029      C2030   1.348       .  D
C2030      H2038   1.085       .  S
C2031      H2039   1.086       .  S
C2031      C2032   1.347       .  D
C2032      H2040   1.084       .  S
C2041      C2049   1.495       .  S
C2041      C2042   1.407       .  A
C2041      C2046   1.410       .  A
C2042      C2043   1.401       .  A
C2042      H2051   1.083       .  S
C2043      C2044   1.407       .  A
C2043      H2052   1.081       .  S
C2044      C2047   1.488       .  S
C2044      C2045   1.402       .  A
C2045      C2046   1.397       .  A
C2045      H2053   1.084       .  S
C2046      H2054   1.078       .  S
C2047      H2055   1.087       .  S
C2047      C2048   1.347       .  D
C2048      H2056   1.085       .  S
C2049      H2057   1.084       .  S
C2049      C2050   1.350       .  D
C2050      H2058   1.081   1_655  S
C2059      C2067   1.489       .  S
C2059      C2060   1.405       .  A
C2059      C2064   1.407       .  A
C2060      C2061   1.397       .  A
C2060      H2069   1.084       .  S
C2061      C2062   1.406       .  A
C2061      H2070   1.080       .  S
C2062      C2065   1.490       .  S
C2062      C2063   1.406       .  A
C2063      C2064   1.400       .  A
C2063      H2071   1.083       .  S
C2064      H2072   1.080       .  S
C2065      H2073   1.083       .  S
C2065      C2066   1.352       .  D
C2066      H2074   1.083       .  S
C2067      H2075   1.087       .  S
C2067      C2068   1.351       .  D
C2068      H2076   1.083       .  S
C2077      C2085   1.495       .  S
C2077      C2078   1.404       .  A
C2077      C2082   1.410       .  A
C2078      H2087   1.083       .  S
C2079      C2080   1.409   1_455  A
C2079      H2088   1.082   1_455  S
C2080      C2083   1.497       .  S
C2080      C2081   1.404   1_655  A
C2081      H2089   1.083   1_455  S
C2082      H2090   1.081       .  S
C2083      H2091   1.087       .  S
C2083      C2084   1.347       .  D
C2084      H2092   1.086       .  S
C2085      H2093   1.084       .  S
C2085      C2086   1.347       .  D
C2086      H2094   1.085       .  S
C2095      C2103   1.478       .  S
C2096      C2097   1.402       .  A
C2096      H2105   1.083       .  S
C2097      C2098   1.408   1_545  A
C2097      H2106   1.082   1_545  S
C2098      C2101   1.482       .  S
C2098      C2099   1.402       .  A
C2099      C2100   1.395   1_565  A
C2099      H2107   1.084       .  S
C2101      H2109   1.087       .  S
C2101      C2102   1.346       .  D
C2102      H2110   1.086       .  S
C2103      H2111   1.086       .  S
C2103      C2104   1.340       .  D
C2104      H2112   1.088       .  S
