geometry optimzed in LAMMPS
_audit_creation_date              2020-11-30 
_audit_creation_method            'lammps2cif' 
_symmetry_space_group_name_H-M    'P1' 
_symmetry_Int_Tables_number       1 
_symmetry_cell_setting            triclinic 
loop_ 
_symmetry_equiv_pos_as_xyz 
  x,y,z 
_cell_length_a                    32.03139011 
_cell_length_b                    32.90041520904803 
_cell_length_c                    26.18821902199138 
_cell_angle_alpha                 89.12717040909291 
_cell_angle_beta                  90.28646273022859 
_cell_angle_gamma                 88.86055749204743 
loop_ 
_atom_site_label 
_atom_site_type_symbol 
_atom_site_fract_x 
_atom_site_fract_y 
_atom_site_fract_z 
_atom_site_charge 
C1          C  0.59781878  0.17269677  0.57510406    -0.01500
C2          C  0.49622763  0.96979675  0.79397619    -0.01500
C3          C  0.78788756  0.07053060  0.81510246    -0.01500
C4          C  0.68225971  0.89471096  0.56980681    -0.01500
C5          C  0.25751475  0.58168305  0.76371953    -0.01500
C6          C  0.18826847  0.39594509  0.01111108    -0.01500
C7          C  0.04974139  0.66382184  0.99498954    -0.01500
C8          C  0.96858753  0.46773101  0.79325348    -0.01500
In9        In  0.68496934  0.81232665  0.44338391     1.36900
C10         C  0.67937971  0.84763596  0.34668736     0.78600
O11         O  0.63540011  0.76571696  0.44832758    -0.59900
O12         O  0.61714749  0.82772611  0.45617414    -0.50800
C13         C  0.74221448  0.75269579  0.45065394     0.71200
O14         O  0.75179227  0.78950716  0.44805977    -0.45700
C15         C  0.69156876  0.85983376  0.53069606     0.75900
O16         O  0.70287134  0.85863152  0.38217115    -0.57500
O17         O  0.67005118  0.82824945  0.52764557    -0.47600
O18         O  0.66102174  0.81559651  0.35890622    -0.54000
C19         C  0.60605747  0.79115863  0.45609349     0.86100
O20         O  0.70382242  0.74660073  0.44671001    -0.55800
O21         O  0.71407114  0.86355014  0.49163400    -0.59100
In22       In  0.92089265  0.44681445  0.64348702     1.36900
C23         C  0.97250293  0.45107684  0.56155539     0.78600
O24         O  0.92444208  0.51103825  0.62120686    -0.59900
O25         O  0.86400897  0.48611327  0.63064536    -0.50800
C26         C  0.88026227  0.37958354  0.62695038     0.71200
O27         O  0.91935799  0.38019014  0.63057785    -0.45700
C28         C  0.94844411  0.45757835  0.74089363     0.75900
O29         O  0.93342070  0.45303464  0.55743031    -0.57500
O30         O  0.91482500  0.47321132  0.72417150    -0.51600
O31         O  0.98428958  0.44306258  0.60689625    -0.54000
C32         C  0.88546468  0.51634107  0.61753627     0.86100
O33         O  0.86175523  0.41193196  0.63960707    -0.55800
O34         O  0.96493132  0.43418380  0.70885613    -0.59100
In35       In  0.33147931  0.59935834  0.63066302     1.36900
C36         C  0.29894329  0.58241874  0.53928942     0.78600
O37         O  0.39794012  0.57566616  0.62809761    -0.59900
O38         O  0.34871092  0.53412278  0.63708705    -0.50800
C39         C  0.36069127  0.67222831  0.61329006     0.71200
O40         O  0.32727212  0.66103171  0.59299997    -0.45700
C41         C  0.28491189  0.58920961  0.71659928     0.75900
O42         O  0.33425991  0.56937382  0.55334488    -0.57500
O43         O  0.32068099  0.60437805  0.71760618    -0.47600
O44         O  0.28268960  0.60772216  0.56978896    -0.54000
C45         C  0.38719906  0.53898411  0.63052173     0.86100
O46         O  0.37559226  0.64815529  0.64695751    -0.55800
O47         O  0.27274532  0.58203921  0.67180986    -0.59100
In48       In  0.58671854  0.24466414  0.43762807     1.36900
C49         C  0.57745791  0.20106238  0.35002335     0.78600
O50         O  0.63635708  0.29020486  0.41575288    -0.59900
O51         O  0.65465725  0.23209125  0.44393394    -0.50800
C52         C  0.54230842  0.30893740  0.46684895     0.71200
O53         O  0.52479837  0.27844100  0.44730336    -0.45700
C54         C  0.58964033  0.20028503  0.52724923     0.75900
O55         O  0.59141694  0.23652647  0.35103988    -0.57500
O56         O  0.60504926  0.19110198  0.48458580    -0.47600
O57         O  0.55869069  0.19225536  0.39098493    -0.54000
C58         C  0.66607246  0.26657436  0.42888577     0.86100
O59         O  0.58151713  0.30782306  0.46500785    -0.55800
O60         O  0.57074003  0.23406653  0.52504829    -0.59100
C61         C  0.50493754  0.97734702  0.05950665    -0.01500
C62         C  0.67022324  0.87338397  0.29745765    -0.01500
C63         C  0.77487756  0.05493129  0.06459157    -0.01500
C64         C  0.59132957  0.16902724  0.30977588    -0.01500
C65         C  0.17567793  0.37600749  0.27196067    -0.01500
C66         C  0.00329097  0.45986625  0.51769202    -0.01500
C67         C  0.07708455  0.64992988  0.24930746    -0.01500
C68         C  0.27303160  0.56148470  0.49900650    -0.01500
In69       In  0.85582124  0.09600281  0.94959489     1.36900
C70         C  0.81560497  0.08445766  0.85920683     0.78600
O71         O  0.89497843  0.03881186  0.94908753    -0.59900
O72         O  0.91248338  0.08575905  0.99889447    -0.50800
C73         C  0.88749286  0.16867623  0.95706996     0.71200
O74         O  0.90073913  0.14286640  0.92537265    -0.45700
C75         C  0.80672834  0.07124165  0.02678510     0.75900
O76         O  0.85310388  0.07369187  0.86645945    -0.57500
O77         O  0.81054194  0.10808187  0.01431085    -0.47600
O78         O  0.80091375  0.10433857  0.89592374    -0.54000
C79         C  0.91782602  0.04943928  0.98578067     0.86100
O80         O  0.85431606  0.15913922  0.97942517    -0.55800
O81         O  0.82727200  0.04789020  0.99864289    -0.59100
In82       In  0.05265013  0.73538925  0.12826610     1.36900
C83         C  0.04572616  0.69462068  0.03835560     0.78600
O84         O  0.08428148  0.78998731  0.09321284    -0.59900
O85         O  0.12143864  0.74547640  0.13260926    -0.50800
C86         C  0.00176042  0.79649050  0.15111304     0.71200
O87         O  0.99218341  0.77027738  0.11860382    -0.45700
C88         C  0.06475700  0.68197566  0.20823760     0.75900
O89         O  0.07295248  0.72006353  0.04770658    -0.57500
O90         O  0.09255968  0.69730116  0.18078690    -0.47600
O91         O  0.01985977  0.69177159  0.07432197    -0.54000
C92         C  0.12056622  0.77716211  0.10480306     0.86100
O93         O  0.03460637  0.78820290  0.17611841    -0.55800
O94         O  0.02865501  0.69401960  0.19497641    -0.59100
In95       In  0.20171542  0.31585469  0.13974362     1.36900
C96         C  0.19516512  0.36595154  0.05633672     0.78600
O97         O  0.16008786  0.26409293  0.11912324    -0.59900
O98         O  0.13306549  0.32017451  0.14187512    -0.50800
C99         C  0.26872207  0.27177449  0.12394220     0.71200
O100        O  0.26842043  0.30973007  0.11736833    -0.45700
C101        C  0.19521572  0.34692147  0.23305889     0.75900
O102        O  0.20210669  0.32839305  0.05284677    -0.57500
O103        O  0.22143001  0.35844075  0.20057741    -0.47600
O104        O  0.19380392  0.37733159  0.10228478    -0.54000
C105        C  0.12709501  0.28490758  0.12602335     0.86100
O106        O  0.23718401  0.25764078  0.14613886    -0.55800
O107        O  0.18016241  0.31313742  0.22254199    -0.59100
In108      In  0.42410710  0.96605820  0.93222910     1.36900
C109        C  0.46852925  0.96617718  0.84236144     0.78600
O110        O  0.36658127  0.00487443  0.94312757    -0.59900
O111        O  0.42338785  0.03435878  0.92779609    -0.50800
C112        C  0.37165739  0.90479240  0.94949331     0.71200
O113        O  0.36902465  0.92757170  0.91040994    -0.45700
C114        C  0.47141907  0.96945410  0.01859126     0.75900
O115        O  0.43068249  0.97680099  0.84516127    -0.57500
O116        O  0.44122934  0.99346340  0.00909528    -0.47600
O117        O  0.48223996  0.95218069  0.88443958    -0.54000
C118        C  0.38527067  0.03813501  0.93858932     0.86100
O119        O  0.40316994  0.91111733  0.97655101    -0.55800
O120        O  0.47523195  0.94238929  0.98520347    -0.59100
C121        C  0.37587884  0.14727071  0.97843462    -0.13400
C122        C  0.34211256  0.14471582  0.01193144     0.17000
C123        C  0.31711445  0.10989105  0.01135907     0.03300
C124        C  0.32963488  0.07634272  0.98277193    -0.11900
C125        C  0.36584462  0.07740435  0.95293768    -0.03000
C126        C  0.38714279  0.11449320  0.94783613     0.02500
C127        C  0.33201586  0.17975606  0.04444950     0.09400
N128        N  0.27818657  0.10864582  0.03776350     0.65700
H129        H  0.31175746  0.04879047  0.98565277     0.18600
N130        N  0.42047962  0.11946154  0.91249682     0.76200
H131        H  0.39394917  0.17475628  0.97637503     0.10200
C132        C  0.32704004  0.17565731  0.09781505     0.03900
C133        C  0.30962921  0.20790567  0.12508769    -0.04900
C134        C  0.29964709  0.24486080  0.10049137    -0.23300
C135        C  0.31047776  0.25073016  0.04874508     0.13100
C136        C  0.32564586  0.21788202  0.02096809    -0.12400
N137        N  0.34031995  0.13953877  0.12484527     0.64800
H138        H  0.30259936  0.20371272  0.16525103     0.12600
N139        N  0.30255510  0.28850857  0.02243209     0.61400
H140        H  0.33051719  0.22172651  0.98025786     0.08800
O141        O  0.45741502  0.12065745  0.92919511    -0.40100
O142        O  0.41216350  0.13566009  0.86961259    -0.39200
O143        O  0.24636708  0.12523706  0.01711288    -0.39200
O144        O  0.27327143  0.08244724  0.07279538    -0.36900
O145        O  0.33271219  0.31171341  0.01392328    -0.37800
O146        O  0.26963965  0.29299692  0.99612119    -0.34000
O147        O  0.37888497  0.13141226  0.12860489    -0.35400
O148        O  0.31541267  0.12212528  0.15484965    -0.39700
C149        C  0.19641646  0.84668744  0.03608002    -0.13400
C150        C  0.22943091  0.81925581  0.02601075     0.17000
C151        C  0.22703561  0.77893331  0.04451169     0.03300
C152        C  0.19228393  0.76685307  0.07263086    -0.11900
C153        C  0.15888338  0.79396882  0.08201170    -0.03000
C154        C  0.16115935  0.83435919  0.06343564     0.02500
C155        C  0.26784309  0.83458003  0.00132366     0.09400
N156        N  0.25866469  0.74931228  0.03294317     0.65700
H157        H  0.19072594  0.73542523  0.08530505     0.18600
N158        N  0.12884964  0.86361881  0.07365327     0.76200
H159        H  0.19838427  0.87811436  0.02348648     0.10200
C160        C  0.26689200  0.85399169  0.95292930     0.03900
C161        C  0.30204970  0.87450958  0.93521570    -0.04900
C162        C  0.33867485  0.87597088  0.96479268    -0.23300
C163        C  0.34054882  0.85381351  0.01160873     0.13100
C164        C  0.30520815  0.83373157  0.02941845    -0.12400
N165        N  0.23035281  0.85346656  0.92147749     0.64800
H166        H  0.30001962  0.89067442  0.89890046     0.12600
N167        N  0.37732727  0.85270257  0.04279340     0.61400
H168        H  0.30641391  0.81906862  0.06674353     0.08800
O169        O  0.10151612  0.87161411  0.03992645    -0.40100
O170        O  0.13335182  0.88768798  0.11023692    -0.39200
O171        O  0.28520394  0.73906180  0.06674259    -0.39200
O172        O  0.25376272  0.72680474  0.99487276    -0.36900
O173        O  0.37999637  0.87663521  0.07982068    -0.37800
O174        O  0.40170197  0.82215718  0.04103641    -0.34000
O175        O  0.20782317  0.88522261  0.91691105    -0.35400
O176        O  0.22658341  0.82549854  0.88943800    -0.39700
C177        C  0.04106276  0.22290604  0.07010377    -0.13400
C178        C  0.01212834  0.25398430  0.05708443     0.17000
C179        C  0.01712668  0.29294348  0.07726679     0.03300
C180        C  0.05299011  0.30102033  0.10555100    -0.11900
C181        C  0.08496840  0.27138982  0.11200059    -0.03000
C182        C  0.07763503  0.23135057  0.09666664     0.02500
C183        C  0.97701547  0.24406615  0.02315508     0.09400
N184        N  0.98782078  0.32529475  0.06641318     0.65700
H185        H  0.05698954  0.33160358  0.11897029     0.18600
N186        N  0.10731191  0.19918004  0.10645890     0.76200
H187        H  0.03589810  0.19206058  0.05798384     0.10200
C188        C  0.98466445  0.22584928  0.97564862     0.03900
C189        C  0.95248375  0.20648913  0.95041129    -0.04900
C190        C  0.91297651  0.20329849  0.97268940    -0.23300
C191        C  0.90403700  0.22568072  0.01729093     0.13100
C192        C  0.93617688  0.24612181  0.04190165    -0.12400
N193        N  0.02590293  0.22294217  0.95517780     0.64800
H194        H  0.95991998  0.19011797  0.91591553     0.12600
N195        N  0.86405466  0.22444457  0.04122917     0.61400
H196        H  0.92999632  0.26019346  0.07831550     0.08800
O197        O  0.13036876  0.18685507  0.07072568    -0.40100
O198        O  0.10373611  0.17746615  0.14626556    -0.39200
O199        O  0.96497059  0.33863289  0.10177986    -0.39200
O200        O  0.99172641  0.34627665  0.02604213    -0.36900
O201        O  0.85842645  0.19972613  0.07776160    -0.37800
O202        O  0.83875650  0.25398160  0.03477095    -0.34000
O203        O  0.04578006  0.18946482  0.95819536    -0.35400
O204        O  0.03786664  0.24987503  0.92407682    -0.39700
C205        C  0.95846504  0.98999791  0.09974608    -0.13400
C206        C  0.96523611  0.95203327  0.07765226     0.17000
C207        C  0.96563935  0.94898411  0.02398846     0.03300
C208        C  0.95418854  0.98264759  0.99355702    -0.11900
C209        C  0.94329742  0.01980591  0.01582941    -0.03000
C210        C  0.94810649  0.02404665  0.06926872     0.02500
C211        C  0.96788323  0.91505245  0.11022876     0.09400
N212        N  0.97644204  0.91148402  0.00004430     0.65700
H213        H  0.95138273  0.97904255  0.95261881     0.18600
N214        N  0.93860444  0.06157986  0.09379981     0.76200
H215        H  0.95868523  0.99274369  0.14093095     0.10200
C216        C  0.00028348  0.90846434  0.14603636     0.03900
C217        C  0.00678395  0.86957459  0.16717134    -0.04900
C218        C  0.98171931  0.83717290  0.15223675    -0.23300
C219        C  0.94484439  0.84582785  0.12428053     0.13100
C220        C  0.93834984  0.88468735  0.10312421    -0.12400
N221        N  0.02931455  0.93955057  0.15721489     0.64800
H222        H  0.03465567  0.86385072  0.19001077     0.12600
N223        N  0.91499794  0.81508924  0.11482259     0.61400
H224        H  0.91142865  0.89054062  0.07865585     0.08800
O225        O  0.90226445  0.06825962  0.11052071    -0.40100
O226        O  0.96802861  0.08392258  0.10762690    -0.39200
O227        O  0.94818212  0.89017298  0.98096013    -0.39200
O228        O  0.01414897  0.90372298  0.98960520    -0.36900
O229        O  0.88484370  0.81099668  0.14517950    -0.37800
O230        O  0.91320626  0.79920878  0.07133441    -0.34000
O231        O  0.02925964  0.95532697  0.20083326    -0.35400
O232        O  0.05951818  0.94565282  0.12752362    -0.39700
C233        C  0.13660202  0.67536034  0.37272442    -0.13400
C234        C  0.17744194  0.66913341  0.35564965     0.17000
C235        C  0.18517926  0.67561014  0.30312059     0.03300
C236        C  0.15116528  0.67936003  0.26858302    -0.11900
C237        C  0.11026791  0.67057158  0.28530973    -0.03000
C238        C  0.10319545  0.67772122  0.33807846     0.02500
C239        C  0.20533841  0.64356957  0.38935013     0.09400
N240        N  0.22661623  0.67319768  0.28343872     0.65700
H241        H  0.15812765  0.68013859  0.22805864     0.18600
N242        N  0.06406381  0.69298238  0.35606427     0.76200
H243        H  0.13029481  0.67541663  0.41336494     0.10200
C244        C  0.23889063  0.65811246  0.41830253     0.03900
C245        C  0.25935668  0.63229410  0.45455509    -0.04900
C246        C  0.24714452  0.59162518  0.46293880    -0.23300
C247        C  0.21241618  0.57762649  0.43338910     0.13100
C248        C  0.19301968  0.60355607  0.39730934    -0.12400
N249        N  0.25255733  0.69884961  0.41149242     0.64800
H250        H  0.28532815  0.64397003  0.47564041     0.12600
N251        N  0.19456554  0.53805309  0.44063601     0.61400
H252        H  0.16683311  0.59246292  0.37546393     0.08800
O253        O  0.04651006  0.67499193  0.39273108    -0.40100
O254        O  0.05524668  0.73005449  0.34781175    -0.39200
O255        O  0.24005278  0.64000351  0.26572559    -0.39200
O256        O  0.24488757  0.70563522  0.27174735    -0.36900
O257        O  0.21728984  0.50680990  0.44772242    -0.37800
O258        O  0.15566541  0.53372345  0.43586704    -0.34000
O259        O  0.23936046  0.72606939  0.44110125    -0.35400
O260        O  0.28395941  0.70561156  0.38396614    -0.39700
C261        C  0.09241623  0.50548614  0.60045442    -0.13400
C262        C  0.12789656  0.48865086  0.57800935     0.17000
C263        C  0.12310405  0.45751547  0.54236992     0.03300
C264        C  0.08372826  0.44891327  0.52349502    -0.11900
C265        C  0.04691611  0.46685448  0.54365267    -0.03000
C266        C  0.05243005  0.49523391  0.58433818     0.02500
C267        C  0.16809041  0.50982825  0.58168077     0.09400
N268        N  0.15814261  0.43476308  0.52382009     0.65700
H269        H  0.08332485  0.42898082  0.49124620     0.18600
N270        N  0.01857243  0.51804829  0.60587914     0.76200
H271        H  0.09569884  0.52858205  0.62912500     0.10200
C272        C  0.17038591  0.55154996  0.57036081     0.03900
C273        C  0.20717611  0.56681345  0.55149348    -0.04900
C274        C  0.24041356  0.54089962  0.53542049    -0.23300
C275        C  0.24074146  0.50088712  0.55794134     0.13100
C276        C  0.20526524  0.48721902  0.58345314    -0.12400
N277        N  0.13463920  0.57810029  0.57000197     0.64800
H278        H  0.20709792  0.59912989  0.54298342     0.12600
N279        N  0.27526501  0.47315691  0.55742272     0.61400
H280        H  0.20560806  0.45692676  0.60009343     0.08800
O281        O  0.00962726  0.51089340  0.65189029    -0.40100
O282        O  0.00968559  0.55285999  0.58755406    -0.39200
O283        O  0.17239902  0.40492134  0.54981049    -0.39200
O284        O  0.17218083  0.44175118  0.47971942    -0.36900
O285        O  0.30153325  0.47487984  0.59325488    -0.37800
O286        O  0.27045399  0.43939084  0.53602039    -0.34000
O287        O  0.13364964  0.60739654  0.60049223    -0.35400
O288        O  0.11221695  0.58018038  0.53032867    -0.39700
C289        C  0.98131195  0.61869067  0.33857821    -0.13400
C290        C  0.99771033  0.58160519  0.35870758     0.17000
C291        C  0.03497078  0.56657389  0.33815677     0.03300
C292        C  0.05928537  0.59165539  0.30855049    -0.11900
C293        C  0.04417304  0.62832238  0.28520602    -0.03000
C294        C  0.00279441  0.64091074  0.29968756     0.02500
C295        C  0.98501504  0.56339028  0.40885128     0.09400
N296        N  0.04981458  0.52594803  0.34848887     0.65700
H297        H  0.09090061  0.58077848  0.30312408     0.18600
N298        N  0.98319373  0.67715373  0.27965140     0.76200
H299        H  0.95245985  0.63100443  0.35389365     0.10200
C300        C  0.01383565  0.56569033  0.44892940     0.03900
C301        C  0.01907597  0.53295697  0.48260654    -0.04900
C302        C  0.99071383  0.50028599  0.48604123    -0.23300
C303        C  0.95407095  0.50532200  0.45438068     0.13100
C304        C  0.95359949  0.53431790  0.41338123    -0.12400
N305        N  0.04244316  0.59848128  0.45157900     0.64800
H306        H  0.04780339  0.53374109  0.50366348     0.12600
N307        N  0.91907378  0.47928382  0.45938056     0.61400
H308        H  0.92962901  0.53300292  0.38417390     0.08800
O309        O  0.95631536  0.67394982  0.24464110    -0.40100
O310        O  0.98181891  0.70841433  0.30691601    -0.39200
O311        O  0.05132389  0.50173434  0.31179432    -0.39200
O312        O  0.07244078  0.51835331  0.38712529    -0.36900
O313        O  0.88763918  0.49224657  0.48353622    -0.37800
O314        O  0.91417494  0.45121429  0.42773468    -0.34000
O315        O  0.03687377  0.62506228  0.48520989    -0.35400
O316        O  0.07759037  0.59553841  0.43022895    -0.39700
C317        C  0.16742871  0.47241974  0.18207145    -0.13400
C318        C  0.12629589  0.48529085  0.18971384     0.17000
C319        C  0.09843784  0.45562629  0.20737051     0.03300
C320        C  0.11424311  0.42019526  0.23179406    -0.11900
C321        C  0.15755023  0.41177944  0.23681749    -0.03000
C322        C  0.18440627  0.43901134  0.20891307     0.02500
C323        C  0.11712541  0.53042988  0.19238539     0.09400
N324        N  0.05527409  0.45694096  0.19293475     0.65700
H325        H  0.09159850  0.40104477  0.24801192     0.18600
N326        N  0.22911311  0.43867994  0.21410190     0.76200
H327        H  0.18839934  0.49209611  0.16162674     0.10200
C328        C  0.14655845  0.55686757  0.21422237     0.03900
C329        C  0.13546538  0.59666727  0.22644029    -0.04900
C330        C  0.09507943  0.61315296  0.21718379    -0.23300
C331        C  0.06772177  0.58856901  0.18835067     0.13100
C332        C  0.07818792  0.54758886  0.17791975    -0.12400
N333        N  0.18701878  0.54338333  0.23144190     0.64800
H334        H  0.15719148  0.60997430  0.24905825     0.12600
N335        N  0.02785683  0.60402839  0.17215495     0.61400
H336        H  0.05569804  0.52951810  0.15824873     0.08800
O337        O  0.24504858  0.46444266  0.24316860    -0.40100
O338        O  0.25092519  0.42662883  0.17716586    -0.39200
O339        O  0.02821184  0.46998969  0.22366998    -0.39200
O340        O  0.04362529  0.43493930  0.15666433    -0.36900
O341        O  0.99514823  0.59281231  0.19448534    -0.37800
O342        O  0.02493269  0.62294318  0.13014568    -0.34000
O343        O  0.19266184  0.53757028  0.27865753    -0.35400
O344        O  0.21817770  0.55168420  0.20416180    -0.39700
C345        C  0.22605776  0.45928204  0.35169509    -0.13400
C346        C  0.26771045  0.44639569  0.35744676     0.17000
C347        C  0.27902410  0.40720811  0.34023419     0.03300
C348        C  0.24958768  0.38389165  0.31341638    -0.11900
C349        C  0.20758919  0.39747787  0.30729363    -0.03000
C350        C  0.19548406  0.43422715  0.33209482     0.02500
C351        C  0.29594110  0.47417567  0.38572260     0.09400
N352        N  0.32044578  0.39135665  0.34767901     0.65700
H353        H  0.25966048  0.35514447  0.29761352     0.18600
N354        N  0.15271796  0.44846967  0.33398820     0.76200
H355        H  0.21675919  0.48955523  0.36237969     0.10200
C356        C  0.29888974  0.51537931  0.37063000     0.03900
C357        C  0.30163268  0.54518644  0.40810901    -0.04900
C358        C  0.30006250  0.53442196  0.46073927    -0.23300
C359        C  0.31701395  0.49513084  0.47105738     0.13100
C360        C  0.30954151  0.46402282  0.43544292    -0.12400
N361        N  0.29791436  0.52750278  0.31802071     0.64800
H362        H  0.30026895  0.57667793  0.39563226     0.12600
N363        N  0.35150484  0.48986652  0.50575501     0.61400
H364        H  0.31506435  0.43248116  0.44615788     0.08800
O365        O  0.14322911  0.48412290  0.31927296    -0.40100
O366        O  0.12628142  0.42900130  0.35945657    -0.39200
O367        O  0.32801814  0.36761978  0.38503087    -0.39200
O368        O  0.34617643  0.39321508  0.31144878    -0.36900
O369        O  0.38011343  0.51568034  0.50496120    -0.37800
O370        O  0.35961971  0.45515430  0.52472907    -0.34000
O371        O  0.27220677  0.55482977  0.30340306    -0.35400
O372        O  0.32994162  0.52076473  0.29135433    -0.39700
C373        C  0.04216674  0.35510688  0.46757182    -0.13400
C374        C  0.04522173  0.36303359  0.41463277     0.17000
C375        C  0.02090046  0.39609636  0.39518043     0.03300
C376        C  0.00512892  0.42581021  0.42798301    -0.11900
C377        C  0.00709212  0.42160023  0.48179413    -0.03000
C378        C  0.02133330  0.38262184  0.50057066     0.02500
C379        C  0.07854812  0.34320834  0.38147664     0.09400
N380        N  0.01406488  0.40197133  0.34168563     0.65700
H381        H  0.99430860  0.45328210  0.40926529     0.18600
N382        N  0.01993515  0.37265696  0.55383374     0.76200
H383        H  0.05693518  0.32808403  0.48396600     0.10200
C384        C  0.12082638  0.34118812  0.39687524     0.03900
C385        C  0.15256282  0.34664088  0.36049041    -0.04900
C386        C  0.14335035  0.35266578  0.30780177    -0.23300
C387        C  0.10350200  0.33740483  0.29326971     0.13100
C388        C  0.07105578  0.33553585  0.32964217    -0.12400
N389        N  0.13239252  0.33363786  0.44880231     0.64800
H390        H  0.18428892  0.34827437  0.37452087     0.12600
N391        N  0.09545392  0.32133066  0.24393295     0.61400
H392        H  0.03961471  0.32936273  0.31695389     0.08800
O393        O  0.05260629  0.37432960  0.58076849    -0.40100
O394        O  0.98863365  0.35457609  0.57133161    -0.39200
O395        O  0.97865769  0.39487151  0.32284330    -0.39200
O396        O  0.04021857  0.42115071  0.31552066    -0.36900
O397        O  0.10465972  0.28429000  0.23744368    -0.37800
O398        O  0.06610262  0.33688335  0.21740586    -0.34000
O399        O  0.13102094  0.29772356  0.46624379    -0.35400
O400        O  0.15511847  0.35868100  0.47098781    -0.39700
C401        C  0.68974863  0.19185386  0.22983571    -0.13400
C402        C  0.67513112  0.17580008  0.18361055     0.17000
C403        C  0.63156179  0.17942819  0.17444929     0.03300
C404        C  0.60467151  0.19028924  0.21439315    -0.11900
C405        C  0.61915405  0.19015409  0.26566665    -0.03000
C406        C  0.66141669  0.20299108  0.26930364     0.02500
C407        C  0.70264552  0.14791277  0.15224186     0.09400
N408        N  0.61318078  0.16559824  0.12819447     0.65700
H409        H  0.57163472  0.19132515  0.20576176     0.18600
N410        N  0.67232232  0.23691688  0.30034444     0.76200
H411        H  0.72291624  0.19589373  0.23525776     0.10200
C412        C  0.74223076  0.15778512  0.13233069     0.03900
C413        C  0.76683104  0.12802608  0.10668729    -0.04900
C414        C  0.75229497  0.08804351  0.09864051    -0.23300
C415        C  0.71415285  0.07834913  0.12286918     0.13100
C416        C  0.68957906  0.10810002  0.14608995    -0.12400
N417        N  0.75610957  0.19870577  0.13297460     0.64800
H418        H  0.79706617  0.13697331  0.09317642     0.12600
N419        N  0.69662497  0.03916545  0.11904863     0.61400
H420        H  0.65915664  0.09925371  0.15879757     0.08800
O421        O  0.64981782  0.26882209  0.29727854    -0.40100
O422        O  0.70967055  0.24041291  0.31503939    -0.39200
O423        O  0.58738370  0.13709543  0.13045957    -0.39200
O424        O  0.61398630  0.18800384  0.08873066    -0.36900
O425        O  0.71388674  0.00825064  0.13966750    -0.37800
O426        O  0.66134286  0.03633417  0.09849993    -0.34000
O427        O  0.78589680  0.20787669  0.16200865    -0.35400
O428        O  0.74605044  0.22236463  0.09636906    -0.39700
C429        C  0.63582145  0.97229891  0.37252339    -0.13400
C430        C  0.64383905  0.00258589  0.33640849     0.17000
C431        C  0.65466249  0.98834668  0.28636370     0.03300
C432        C  0.65265667  0.94703946  0.27469093    -0.11900
C433        C  0.65191086  0.91666410  0.31239112    -0.03000
C434        C  0.63988498  0.93055816  0.36180317     0.02500
C435        C  0.63543656  0.04701726  0.35127403     0.09400
N436        N  0.66785477  0.01374250  0.24514260     0.65700
H437        H  0.65724922  0.93860841  0.23541701     0.18600
N438        N  0.62926157  0.90396847  0.40226021     0.76200
H439        H  0.62711554  0.98094574  0.41069558     0.10200
C440        C  0.59502244  0.06164279  0.36624787     0.03900
C441        C  0.58580248  0.10402065  0.36579780    -0.04900
C442        C  0.61312845  0.13273109  0.34361066    -0.23300
C443        C  0.65595763  0.11906496  0.34287425     0.13100
C444        C  0.66619392  0.07660782  0.34506096    -0.12400
N445        N  0.56043406  0.03477142  0.37140954     0.64800
H446        H  0.55369988  0.11332879  0.37274529     0.12600
N447        N  0.68942391  0.14701615  0.34349805     0.61400
H448        H  0.69830665  0.06658343  0.34004453     0.08800
O449        O  0.59111977  0.90029785  0.41193643    -0.40100
O450        O  0.65408961  0.90248273  0.43930206    -0.39200
O451        O  0.70040586  0.03420756  0.24883067    -0.39200
O452        O  0.65055920  0.01023866  0.20204824    -0.36900
O453        O  0.68865055  0.17515325  0.37559121    -0.37800
O454        O  0.72329306  0.13849642  0.32119680    -0.34000
O455        O  0.52840420  0.04110688  0.34396812    -0.35400
O456        O  0.55740673  0.01201662  0.41035524    -0.39700
C457        C  0.77926541  0.92145781  0.25920707    -0.13400
C458        C  0.77654122  0.92447160  0.20598215     0.17000
C459        C  0.74463234  0.90216889  0.18295349     0.03300
C460        C  0.71268910  0.88541397  0.21239795    -0.11900
C461        C  0.71257333  0.88364899  0.26672426    -0.03000
C462        C  0.74826795  0.90257625  0.28921593     0.02500
C463        C  0.79954376  0.95689990  0.17574704     0.09400
N464        N  0.74009715  0.90089168  0.12885625     0.65700
H465        H  0.68527925  0.88008131  0.19031222     0.18600
N466        N  0.75116564  0.90991373  0.34227311     0.76200
H467        H  0.80433433  0.93626452  0.27877035     0.10200
C468        C  0.80074947  0.99781664  0.19167232     0.03900
C469        C  0.79918596  0.02942632  0.15482395    -0.04900
C470        C  0.79623988  0.02160473  0.10171703    -0.23300
C471        C  0.81078786  0.98168213  0.08795732     0.13100
C472        C  0.81117482  0.94996178  0.12493554    -0.12400
N473        N  0.80531560  0.00810519  0.24432169     0.64800
H474        H  0.79779295  0.06021306  0.16866885     0.12600
N475        N  0.82354215  0.97149841  0.03733768     0.61400
H476        H  0.81781410  0.91918366  0.11292011     0.08800
O477        O  0.73601095  0.94293137  0.35848911    -0.40100
O478        O  0.77999990  0.89203944  0.36746656    -0.39200
O479        O  0.75514701  0.87090263  0.10516912    -0.39200
O480        O  0.71207068  0.92271977  0.10784976    -0.36900
O481        O  0.80390970  0.94471531  0.01357618    -0.37800
O482        O  0.86131139  0.97645105  0.02607793    -0.34000
O483        O  0.84038943  0.00210721  0.26556011    -0.35400
O484        O  0.78007561  0.03308562  0.26409929    -0.39700
C485        C  0.68212726  0.05486047  0.96868920    -0.13400
C486        C  0.66565043  0.01656535  0.97682499     0.17000
C487        C  0.69172291  0.98652228  0.00010547     0.03300
C488        C  0.72749284  0.99833720  0.02661287    -0.11900
C489        C  0.74012148  0.03935613  0.02768166    -0.03000
C490        C  0.71725450  0.06736139  0.99513902     0.02500
C491        C  0.61928551  0.01302275  0.97859414     0.09400
N492        N  0.68178250  0.94422084  0.99888252     0.65700
H493        H  0.74193489  0.97540619  0.05017057     0.18600
N494        N  0.72403228  0.11024616  0.99490101     0.76200
H495        H  0.66399257  0.07761687  0.94797407     0.10200
C496        C  0.59533659  0.04152093  0.00630556     0.03900
C497        C  0.56001431  0.02926454  0.03219611    -0.04900
C498        C  0.54309731  0.99058434  0.02636609    -0.23300
C499        C  0.56450030  0.96380428  0.99126505     0.13100
C500        C  0.60088758  0.97634643  0.96668942    -0.12400
N501        N  0.60648040  0.08321621  0.00992635     0.64800
H502        H  0.54875669  0.05002528  0.06017707     0.12600
N503        N  0.55453097  0.92179448  0.98522176     0.61400
H504        H  0.61736571  0.95508725  0.94246768     0.08800
O505        O  0.70146581  0.13212970  0.02322143    -0.40100
O506        O  0.73879017  0.12648903  0.95523700    -0.39200
O507        O  0.69335924  0.92302818  0.96159543    -0.39200
O508        O  0.65831604  0.92879281  0.03212229    -0.36900
O509        O  0.54331136  0.91020810  0.94162304    -0.37800
O510        O  0.57189915  0.89580711  0.01466838    -0.34000
O511        O  0.59040308  0.10863996  0.97874776    -0.35400
O512        O  0.62228869  0.09592552  0.05063008    -0.39700
C513        C  0.47349281  0.08134437  0.12933234    -0.13400
C514        C  0.47644411  0.07037212  0.18096374     0.17000
C515        C  0.47832291  0.02763686  0.19183160     0.03300
C516        C  0.48315189  0.99905114  0.15233070    -0.11900
C517        C  0.48788086  0.01038615  0.10021038    -0.03000
C518        C  0.47706759  0.05242504  0.08977213     0.02500
C519        C  0.49776702  0.09961646  0.21683673     0.09400
N520        N  0.48155644  0.01260101  0.24331375     0.65700
H521        H  0.48566492  0.96748674  0.16416064     0.18600
N522        N  0.46784410  0.06725307  0.03973231     0.76200
H523        H  0.47120011  0.11331538  0.11899406     0.10200
C524        C  0.48547710  0.13852647  0.23586944     0.03900
C525        C  0.51319762  0.16067250  0.26912752    -0.04900
C526        C  0.55498615  0.14651165  0.27906474    -0.23300
C527        C  0.56656266  0.11139695  0.25099351     0.13100
C528        C  0.53856571  0.08918412  0.22325360    -0.12400
N529        N  0.44902723  0.15851690  0.21565120     0.64800
H530        H  0.50319510  0.18992325  0.28354473     0.12600
N531        N  0.60609679  0.09241123  0.25433850     0.61400
H532        H  0.55034175  0.06279788  0.20326410     0.08800
O533        O  0.49371059  0.08992828  0.01775021    -0.40100
O534        O  0.42971880  0.07302548  0.02980660    -0.39200
O535        O  0.44861160  0.00870821  0.26895974    -0.39200
O536        O  0.51387799  0.99250489  0.25684269    -0.36900
O537        O  0.60577261  0.05461415  0.25852421    -0.37800
O538        O  0.63910295  0.10983726  0.24174576    -0.34000
O539        O  0.41533171  0.15815506  0.24028890    -0.35400
O540        O  0.45215911  0.18133394  0.17671743    -0.39700
C541        C  0.57899823  0.90624156  0.13963420    -0.13400
C542        C  0.55968918  0.86907534  0.14157480     0.17000
C543        C  0.52028639  0.86594010  0.11691939     0.03300
C544        C  0.50210736  0.90024383  0.09039727    -0.11900
C545        C  0.52187744  0.93850340  0.08961102    -0.03000
C546        C  0.56039283  0.94041171  0.11698430     0.02500
C547        C  0.57775371  0.84115656  0.18201480     0.09400
N548        N  0.49883289  0.82832413  0.11731807     0.65700
H549        H  0.47248998  0.89684847  0.07103408     0.18600
N550        N  0.58380925  0.97643284  0.11966524     0.76200
H551        H  0.60837275  0.90983600  0.15983797     0.10200
C552        C  0.61900838  0.82496700  0.17816301     0.03900
C553        C  0.64642825  0.82583672  0.22109272    -0.04900
C554        C  0.63622352  0.85030954  0.26372202    -0.23300
C555        C  0.59245749  0.85494344  0.27140487     0.13100
C556        C  0.56387044  0.84966505  0.23112356    -0.12400
N557        N  0.63532123  0.81349202  0.12957373     0.64800
H558        H  0.67802667  0.81409323  0.21680962     0.12600
N559        N  0.57569115  0.86123323  0.32062039     0.61400
H560        H  0.53135310  0.85814309  0.23671975     0.08800
O561        O  0.62110732  0.97431842  0.10509932    -0.40100
O562        O  0.57301631  0.00388821  0.15017639    -0.39200
O563        O  0.46627582  0.82486930  0.14381486    -0.39200
O564        O  0.50595545  0.80321959  0.08230103    -0.36900
O565        O  0.57511358  0.83098629  0.35077866    -0.37800
O566        O  0.54907594  0.88961468  0.32610917    -0.34000
O567        O  0.64205649  0.77641955  0.12031656    -0.35400
O568        O  0.64973475  0.84026733  0.09986434    -0.39700
C569        C  0.51667476  0.39408956  0.55878167    -0.13400
C570        C  0.47438207  0.40149504  0.54856975     0.17000
C571        C  0.45459429  0.37934134  0.50979948     0.03300
C572        C  0.47703670  0.34911932  0.48373480    -0.11900
C573        C  0.51957998  0.34192393  0.49369275    -0.03000
C574        C  0.53955772  0.36539111  0.53133540     0.02500
C575        C  0.45386086  0.43594275  0.57474198     0.09400
N576        N  0.41325845  0.38957941  0.49284302     0.65700
H577        H  0.46144805  0.33220850  0.45427899     0.18600
N578        N  0.58315263  0.36094132  0.54232653     0.76200
H579        H  0.53244069  0.41161070  0.58756987     0.10200
C580        C  0.42117052  0.43070758  0.60986180     0.03900
C581        C  0.40180841  0.46485134  0.63120964    -0.04900
C582        C  0.41532248  0.50426228  0.61951969    -0.23300
C583        C  0.45089074  0.50903654  0.58864259     0.13100
C584        C  0.46935748  0.47501202  0.56602125    -0.12400
N585        N  0.40739725  0.39121052  0.62460959     0.64800
H586        H  0.37490289  0.46040127  0.65528860     0.12600
N587        N  0.46676135  0.54831873  0.57665903     0.61400
H588        H  0.49547563  0.47921467  0.54044240     0.08800
O589        O  0.59501773  0.33673474  0.57755176    -0.40100
O590        O  0.60734148  0.38854115  0.52768222    -0.39200
O591        O  0.40873821  0.41409579  0.45559676    -0.39200
O592        O  0.38400633  0.36583043  0.50350225    -0.36900
O593        O  0.49638703  0.56193675  0.60286219    -0.37800
O594        O  0.45705569  0.56549287  0.53473147    -0.34000
O595        O  0.42294861  0.37448739  0.66419814    -0.35400
O596        O  0.37268066  0.37926202  0.60829480    -0.39700
C597        C  0.79393858  0.31827397  0.57203015    -0.13400
C598        C  0.81247071  0.30750586  0.52557070     0.17000
C599        C  0.85532392  0.31327567  0.51828041     0.03300
C600        C  0.87840657  0.33205053  0.55627750    -0.11900
C601        C  0.85883943  0.34715050  0.60020795    -0.03000
C602        C  0.81650635  0.33891264  0.60890772     0.02500
C603        C  0.78443805  0.29738417  0.48327855     0.09400
N604        N  0.87456604  0.30517979  0.47031552     0.65700
H605        H  0.91061532  0.33914426  0.54835445     0.18600
N606        N  0.79519956  0.35413186  0.65269314     0.76200
H607        H  0.76081109  0.31384145  0.57768140     0.10200
C608        C  0.77688273  0.25693503  0.47052700     0.03900
C609        C  0.74032283  0.24794137  0.44403799    -0.04900
C610        C  0.71026961  0.27855538  0.43261902    -0.23300
C611        C  0.72141519  0.31954774  0.43794368     0.13100
C612        C  0.75847387  0.32858589  0.46334385    -0.12400
N613        N  0.80319639  0.22442640  0.48934503     0.64800
H614        H  0.73335057  0.21636691  0.43790533     0.12600
N615        N  0.69379579  0.35220384  0.42290361     0.61400
H616        H  0.76491859  0.35998725  0.47196129     0.08800
O617        O  0.78824492  0.33037080  0.68981334    -0.40100
O618        O  0.77523519  0.38753261  0.64927330    -0.39200
O619        O  0.87953030  0.33410947  0.43886700    -0.39200
O620        O  0.89525528  0.27252070  0.46492207    -0.36900
O621        O  0.67208910  0.36981260  0.45632318    -0.37800
O622        O  0.69903590  0.36960392  0.38021914    -0.34000
O623        O  0.79426351  0.20672822  0.53084389    -0.35400
O624        O  0.82914889  0.20790823  0.45967659    -0.39700
C625        C  0.49266199  0.79370351  0.49771361    -0.13400
C626        C  0.48970499  0.75433654  0.51766713     0.17000
C627        C  0.52117471  0.72532126  0.50708905     0.03300
C628        C  0.55793981  0.73765874  0.48369119    -0.11900
C629        C  0.56334269  0.77843602  0.46907249    -0.03000
C630        C  0.52894033  0.80600608  0.47301706     0.02500
C631        C  0.45248105  0.74334522  0.54675833     0.09400
N632        N  0.51541832  0.68305189  0.51764009     0.65700
H633        H  0.58278387  0.71531395  0.47835408     0.18600
N634        N  0.52919512  0.84602293  0.45133476     0.76200
H635        H  0.46703122  0.81532066  0.50244304     0.10200
C636        C  0.45409793  0.73434889  0.59960550     0.03900
C637        C  0.41976748  0.71710447  0.62315517    -0.04900
C638        C  0.38457101  0.70701678  0.59459381    -0.23300
C639        C  0.38077837  0.72148108  0.54360232     0.13100
C640        C  0.41487582  0.73965418  0.52022400    -0.12400
N641        N  0.49058781  0.74055416  0.62981460     0.64800
H642        H  0.42262732  0.70746465  0.66282143     0.12600
N643        N  0.34510225  0.71341324  0.51286129     0.61400
H644        H  0.41303510  0.74791483  0.48001565     0.08800
O645        O  0.53583872  0.87543127  0.48040610    -0.40100
O646        O  0.50826544  0.85269356  0.41100975    -0.39200
O647        O  0.49650736  0.66209999  0.48521471    -0.39200
O648        O  0.53782787  0.66518538  0.55111991    -0.36900
O649        O  0.31731596  0.74086325  0.50725044    -0.37800
O650        O  0.34795694  0.68580636  0.48010090    -0.34000
O651        O  0.48906716  0.76733444  0.66379650    -0.35400
O652        O  0.51726896  0.71200929  0.63441865    -0.39700
C653        C  0.83088961  0.69236325  0.51134054    -0.13400
C654        C  0.81736950  0.65263916  0.50379609     0.17000
C655        C  0.78288683  0.64617239  0.47127920     0.03300
C656        C  0.76068863  0.67949855  0.45063107    -0.11900
C657        C  0.77228759  0.71930803  0.46162876    -0.03000
C658        C  0.80894687  0.72565270  0.49019752     0.02500
C659        C  0.83565792  0.61927116  0.53556154     0.09400
N660        N  0.76851506  0.60613305  0.46130785     0.65700
H661        H  0.73291427  0.67418994  0.42806917     0.18600
N662        N  0.82159659  0.76558780  0.50321041     0.76200
H663        H  0.85657721  0.69794213  0.53715265     0.10200
C664        C  0.87913637  0.61231363  0.53924759     0.03900
C665        C  0.89460021  0.58015407  0.56937129    -0.04900
C666        C  0.86753614  0.55401004  0.59530156    -0.23300
C667        C  0.82426661  0.56236003  0.59412590     0.13100
C668        C  0.80887361  0.59533843  0.56519172    -0.12400
N669        N  0.90799159  0.63624049  0.51091105     0.64800
H670        H  0.92800910  0.57436924  0.56994516     0.12600
N671        N  0.79545310  0.53730568  0.62090589     0.61400
H672        H  0.77565229  0.60203599  0.56557077     0.08800
O673        O  0.85295118  0.78065639  0.48159830    -0.40100
O674        O  0.80717390  0.78189208  0.54288271    -0.39200
O675        O  0.73493127  0.59444891  0.48124861    -0.39200
O676        O  0.78359463  0.58673837  0.42429065    -0.36900
O677        O  0.78347864  0.54730198  0.66487337    -0.37800
O678        O  0.77547042  0.51101991  0.59674614    -0.34000
O679        O  0.93049508  0.66104029  0.53425321    -0.35400
O680        O  0.91849258  0.62517281  0.46681612    -0.39700
C681        C  0.94214758  0.61935690  0.95409785    -0.13400
C682        C  0.94883470  0.61631028  0.90101459     0.17000
C683        C  0.97730193  0.64518013  0.88049678     0.03300
C684        C  0.00477570  0.66562084  0.91253178    -0.11900
C685        C  0.00663301  0.65818188  0.96559178    -0.03000
C686        C  0.96962194  0.64069438  0.98631275     0.02500
C687        C  0.93233271  0.58037474  0.86994459     0.09400
N688        N  0.98009962  0.65452406  0.82728814     0.65700
H689        H  0.02684830  0.68548558  0.89422397     0.18600
N690        N  0.96056438  0.64090956  0.03966993     0.76200
H691        H  0.91592167  0.60481749  0.97170529     0.10200
C692        C  0.92071342  0.54200817  0.89135709     0.03900
C693        C  0.92288545  0.50652602  0.86151462    -0.04900
C694        C  0.94358928  0.50617196  0.81430841    -0.23300
C695        C  0.94430930  0.54503284  0.78923925     0.13100
C696        C  0.93544159  0.58072988  0.81636683    -0.12400
N697        N  0.90779791  0.53716404  0.94310890     0.64800
H698        H  0.90992551  0.47967368  0.87670229     0.12600
N699        N  0.95659152  0.55003005  0.73728761     0.61400
H700        H  0.93383185  0.60868158  0.79469836     0.08800
O701        O  0.95987572  0.60745591  0.06386321    -0.40100
O702        O  0.93950354  0.67052408  0.05669370    -0.39200
O703        O  0.95801565  0.68342966  0.80888446    -0.39200
O704        O  0.01099385  0.64138461  0.80231166    -0.36900
O705        O  0.92831518  0.55849942  0.70499928    -0.37800
O706        O  0.99288159  0.56247431  0.72845022    -0.34000
O707        O  0.86940702  0.53375491  0.95248017    -0.35400
O708        O  0.93418917  0.52500569  0.97616851    -0.39700
C709        C  0.01289400  0.41892828  0.90460523    -0.13400
C710        C  0.04113453  0.39346557  0.87936555     0.17000
C711        C  0.02820734  0.37665652  0.83280909     0.03300
C712        C  0.99228947  0.39316126  0.80787989    -0.11900
C713        C  0.97106778  0.42771268  0.82793296    -0.03000
C714        C  0.97431946  0.42931200  0.88198591     0.02500
C715        C  0.08317633  0.38714600  0.90278469     0.09400
N716        N  0.05138101  0.34430974  0.80983073     0.65700
H717        H  0.98528994  0.38261194  0.77002938     0.18600
N718        N  0.93828800  0.42095455  0.91271083     0.76200
H719        H  0.01840193  0.42558589  0.94438951     0.10200
C720        C  0.10983928  0.42018304  0.90506729     0.03900
C721        C  0.14377664  0.41934248  0.93765368    -0.04900
C722        C  0.15337579  0.38624768  0.97065138    -0.23300
C723        C  0.13020505  0.35025421  0.96295866     0.13100
C724        C  0.09433202  0.35160940  0.93065136    -0.12400
N725        N  0.10338577  0.45613764  0.87509539     0.64800
H726        H  0.16187002  0.44535656  0.93855943     0.12600
N727        N  0.14370744  0.31178162  0.98329607     0.61400
H728        H  0.07509368  0.32519098  0.92775444     0.08800
O729        O  0.93903672  0.42684215  0.96024850    -0.40100
O730        O  0.90699759  0.40410194  0.89328476    -0.39200
O731        O  0.07313032  0.35153403  0.77083910    -0.39200
O732        O  0.04189812  0.30809656  0.82031324    -0.36900
O733        O  0.11852723  0.29103495  0.00913421    -0.37800
O734        O  0.17447085  0.29395047  0.96287528    -0.34000
O735        O  0.09322736  0.48824369  0.89804007    -0.35400
O736        O  0.12477546  0.45926422  0.83507427    -0.39700
C737        C  0.10988523  0.47407616  0.07142595    -0.13400
C738        C  0.12910689  0.51108233  0.06324320     0.17000
C739        C  0.17220927  0.50975727  0.05124425     0.03300
C740        C  0.19170562  0.47256699  0.03895046    -0.11900
C741        C  0.16992068  0.43578194  0.03700924    -0.03000
C742        C  0.12782837  0.43738956  0.05588367     0.02500
C743        C  0.10253501  0.54930342  0.06009380     0.09400
N744        N  0.19712902  0.54547216  0.05002168     0.65700
H745        H  0.22314408  0.47461717  0.02667905     0.18600
N746        N  0.09993462  0.40401249  0.05222339     0.76200
H747        H  0.07887005  0.47360389  0.08694412     0.10200
C748        C  0.06273846  0.55035564  0.03614128     0.03900
C749        C  0.04566645  0.58692096  0.01769391    -0.04900
C750        C  0.06556001  0.62434505  0.02401962    -0.23300
C751        C  0.10361262  0.62315275  0.05332272     0.13100
C752        C  0.11910580  0.58642524  0.07407962    -0.12400
N753        N  0.03857364  0.51483500  0.02932475     0.64800
H754        H  0.01851545  0.58395963  0.99404194     0.12600
N755        N  0.13042427  0.65727205  0.05735322     0.61400
H756        H  0.14705631  0.58694161  0.09739694     0.08800
O757        O  0.06399962  0.40942705  0.03296337    -0.40100
O758        O  0.10957259  0.36987272  0.07118529    -0.39200
O759        O  0.22978912  0.54653460  0.07712938    -0.39200
O760        O  0.19094489  0.57250784  0.01596102    -0.36900
O761        O  0.14061443  0.66855688  0.10137358    -0.37800
O762        O  0.15524966  0.66448515  0.02122767    -0.34000
O763        O  0.00742052  0.50900604  0.05767088    -0.35400
O764        O  0.04316562  0.49399375  0.98971847    -0.39700
C765        C  0.07273402  0.52799720  0.79050280    -0.13400
C766        C  0.09500642  0.50851345  0.75169116     0.17000
C767        C  0.08012820  0.47083291  0.73486312     0.03300
C768        C  0.04094505  0.45803266  0.75070838    -0.11900
C769        C  0.01523903  0.48044802  0.78459508    -0.03000
C770        C  0.03497856  0.51348385  0.80950052     0.02500
C771        C  0.13571854  0.52643477  0.73661210     0.09400
N772        N  0.10457188  0.44316102  0.70497937     0.65700
H773        H  0.03192055  0.42912545  0.73630864     0.18600
N774        N  0.02007008  0.53078546  0.85633132     0.76200
H775        H  0.08679813  0.55314538  0.80961892     0.10200
C776        C  0.13931473  0.56879538  0.72917941     0.03900
C777        C  0.17870515  0.58648230  0.73115491    -0.04900
C778        C  0.21540721  0.56328841  0.74276275    -0.23300
C779        C  0.21168555  0.52069144  0.73568534     0.13100
C780        C  0.17249813  0.50279950  0.73692062    -0.12400
N781        N  0.10311721  0.59509193  0.72541428     0.64800
H782        H  0.17844383  0.61800004  0.72355357     0.12600
N783        N  0.24708677  0.49527088  0.72475081     0.61400
H784        H  0.17189022  0.47042501  0.74019862     0.08800
O785        O  0.00872097  0.50777831  0.89228574    -0.40100
O786        O  0.02830476  0.56711862  0.86662707    -0.39200
O787        O  0.09098465  0.43392335  0.66152076    -0.39200
O788        O  0.12696143  0.41693323  0.72849992    -0.36900
O789        O  0.26401865  0.49873633  0.68166187    -0.37800
O790        O  0.25338663  0.46294730  0.75027441    -0.34000
O791        O  0.09531312  0.62004958  0.76040001    -0.35400
O792        O  0.08232924  0.59735087  0.68444136    -0.39700
C793        C  0.29104696  0.44381248  0.96368090    -0.13400
C794        C  0.28234124  0.44472877  0.91050392     0.17000
C795        C  0.25558318  0.41455098  0.89244184     0.03300
C796        C  0.23172082  0.39185531  0.92688360    -0.11900
C797        C  0.23031509  0.40125627  0.97951214    -0.03000
C798        C  0.26695140  0.41969716  0.99780363     0.02500
C799        C  0.28717441  0.48320034  0.87873460     0.09400
N800        N  0.24738971  0.41038372  0.83921361     0.65700
H801        H  0.21034113  0.37046850  0.91064141     0.18600
N802        N  0.27935889  0.41465580  0.05005518     0.76200
H803        H  0.31435027  0.46372692  0.97901177     0.10200
C804        C  0.25755226  0.51411184  0.88569553     0.03900
C805        C  0.24838632  0.54244053  0.84719514    -0.04900
C806        C  0.27420539  0.54848355  0.80437455    -0.23300
C807        C  0.30981880  0.52138165  0.80171493     0.13100
C808        C  0.31394165  0.48740751  0.83647335    -0.12400
N809        N  0.23713711  0.51791363  0.93321211     0.64800
H810        H  0.22141461  0.56174597  0.85247415     0.12600
N811        N  0.34049793  0.52548364  0.76291938     0.61400
H812        H  0.33806431  0.46449286  0.83037706     0.08800
O813        O  0.27784069  0.44424903  0.08003080    -0.40100
O814        O  0.29849494  0.38241946  0.06380725    -0.39200
O815        O  0.27119161  0.38769204  0.81344999    -0.39200
O816        O  0.21121385  0.41889699  0.82237617    -0.36900
O817        O  0.37155777  0.54743919  0.77143245    -0.37800
O818        O  0.34397092  0.49777880  0.73045925    -0.34000
O819        O  0.25714838  0.53063378  0.97116619    -0.35400
O820        O  0.20021910  0.50633322  0.93804100    -0.39700
C821        C  0.23122949  0.64813811  0.87688904    -0.13400
C822        C  0.19620210  0.66867044  0.85573311     0.17000
C823        C  0.19710619  0.67718706  0.80263549     0.03300
C824        C  0.22630486  0.65622707  0.77151856    -0.11900
C825        C  0.25038971  0.62370793  0.79248766    -0.03000
C826        C  0.26094149  0.62921748  0.84483252     0.02500
C827        C  0.15665642  0.67162934  0.88655115     0.09400
N828        N  0.16782770  0.70536774  0.77983189     0.65700
H829        H  0.22599947  0.66163002  0.73058727     0.18600
N830        N  0.30043691  0.61505644  0.86528176     0.76200
H831        H  0.23440263  0.64544005  0.91800303     0.10200
C832        C  0.13460289  0.63609174  0.89721884     0.03900
C833        C  0.09875806  0.63702914  0.92691595    -0.04900
C834        C  0.08545497  0.67164953  0.95403490    -0.23300
C835        C  0.10593656  0.70873676  0.94044413     0.13100
C836        C  0.14124744  0.70808560  0.90736788    -0.12400
N837        N  0.15009180  0.59743445  0.88182476     0.64800
H838        H  0.08244890  0.60873316  0.93128092     0.12600
N839        N  0.09026586  0.74755933  0.95574142     0.61400
H840        H  0.15683243  0.73618964  0.89830669     0.08800
O841        O  0.30461494  0.60706525  0.91235179    -0.40100
O842        O  0.33240629  0.61501893  0.83726844    -0.39200
O843        O  0.17544621  0.74283530  0.78026999    -0.39200
O844        O  0.13941653  0.69276937  0.75094055    -0.36900
O845        O  0.11412734  0.77073445  0.97972090    -0.37800
O846        O  0.05882018  0.76281805  0.93282760    -0.34000
O847        O  0.15240386  0.58930538  0.83521245    -0.35400
O848        O  0.15480713  0.56940409  0.91471291    -0.39700
C849        C  0.74379918  0.97015949  0.65433641    -0.13400
C850        C  0.77955895  0.94943213  0.66892950     0.17000
C851        C  0.78514929  0.90884019  0.65218694     0.03300
C852        C  0.75622815  0.89204058  0.61658267    -0.11900
C853        C  0.71853707  0.91325133  0.60301482    -0.03000
C854        C  0.71302002  0.95283044  0.62542976     0.02500
C855        C  0.80521602  0.97225401  0.70653033     0.09400
N856        N  0.81642118  0.88311464  0.67545805     0.65700
H857        H  0.76110432  0.86118099  0.60378148     0.18600
N858        N  0.67704242  0.97837699  0.61849533     0.76200
H859        H  0.73795565  0.00046937  0.66896149     0.10200
C860        C  0.81943876  0.01143553  0.69314239     0.03900
C861        C  0.82051842  0.04225328  0.73018181    -0.04900
C862        C  0.80911574  0.03473874  0.78189456    -0.23300
C863        C  0.81021593  0.99237389  0.79580087     0.13100
C864        C  0.80131136  0.96315526  0.75843940    -0.12400
N865        N  0.82735835  0.02150373  0.64076496     0.64800
H866        H  0.82694406  0.07287272  0.71716687     0.12600
N867        N  0.83314392  0.97758421  0.83976047     0.61400
H868        H  0.79362558  0.93250652  0.77003231     0.08800
O869        O  0.64503552  0.97184349  0.64489097    -0.40100
O870        O  0.68262229  0.01384050  0.60140518    -0.39200
O871        O  0.80888492  0.86559043  0.71753584    -0.39200
O872        O  0.84900772  0.87361470  0.65123503    -0.36900
O873        O  0.86507871  0.99611561  0.85408999    -0.37800
O874        O  0.82910729  0.94115679  0.85462916    -0.34000
O875        O  0.80448191  0.04739672  0.61742859    -0.35400
O876        O  0.85526606  0.00225821  0.61670069    -0.39700
C877        C  0.50288517  0.88163800  0.70093769    -0.13400
C878        C  0.54275802  0.86697044  0.71619229     0.17000
C879        C  0.55049332  0.86774688  0.76971742     0.03300
C880        C  0.52989934  0.89772996  0.79885710    -0.11900
C881        C  0.50081434  0.92489665  0.77517921    -0.03000
C882        C  0.48030775  0.90935031  0.73179899     0.02500
C883        C  0.57883922  0.86435035  0.67817375     0.09400
N884        N  0.58032099  0.84023220  0.79373373     0.65700
H885        H  0.54063891  0.90338632  0.83727991     0.18600
N886        N  0.43866593  0.92262324  0.71755413     0.76200
H887        H  0.49058723  0.87504403  0.66391917     0.10200
C888        C  0.57462737  0.85809753  0.62480715     0.03900
C889        C  0.60809800  0.86611117  0.59117409    -0.04900
C890        C  0.64758204  0.87895555  0.60860149    -0.23300
C891        C  0.65355195  0.87515870  0.66261885     0.13100
C892        C  0.61936344  0.87254504  0.69545039    -0.12400
N893        N  0.53911382  0.83876360  0.60419804     0.64800
H894        H  0.60254518  0.86325764  0.55064701     0.12600
N895        N  0.69337399  0.86580619  0.68512609     0.61400
H896        H  0.62594892  0.87562002  0.73554085     0.08800
O897        O  0.42380597  0.91387188  0.67443539    -0.40100
O898        O  0.41425760  0.93670869  0.75087769    -0.39200
O899        O  0.59837388  0.84960601  0.83476316    -0.39200
O900        O  0.58760053  0.80571747  0.77491397    -0.36900
O901        O  0.70875546  0.89006250  0.71656651    -0.37800
O902        O  0.70575363  0.82914545  0.68650780    -0.34000
O903        O  0.51221867  0.85987304  0.57976545    -0.35400
O904        O  0.54282664  0.80145630  0.59466636    -0.39700
C905        C  0.69437249  0.00603974  0.85843094    -0.13400
C906        C  0.66195982  0.03397123  0.84688867     0.17000
C907        C  0.67110367  0.07556906  0.84601302     0.03300
C908        C  0.71274706  0.08708583  0.84600160    -0.11900
C909        C  0.74572178  0.05779108  0.84182734    -0.03000
C910        C  0.73602144  0.01847572  0.86084970     0.02500
C911        C  0.62010314  0.01860804  0.83397834     0.09400
N912        N  0.63919770  0.10645930  0.84208499     0.65700
H913        H  0.71882081  0.11927566  0.84349721     0.18600
N914        N  0.76414764  0.99588608  0.89379471     0.76200
H915        H  0.68668901  0.97492585  0.86794571     0.10200
C916        C  0.61576661  0.98918060  0.79634752     0.03900
C917        C  0.57669084  0.97309345  0.78605275    -0.04900
C918        C  0.53976644  0.98679393  0.81052346    -0.23300
C919        C  0.54487947  0.01841862  0.84696612     0.13100
C920        C  0.58461781  0.03247426  0.85920309    -0.12400
N921        N  0.65101410  0.97556669  0.76757766     0.64800
H922        H  0.57595142  0.94988648  0.75769651     0.12600
N923        N  0.51083032  0.03761666  0.87250003     0.61400
H924        H  0.58742246  0.05460720  0.88899122     0.08800
O925        O  0.75684336  0.95939279  0.90564707    -0.40100
O926        O  0.79122428  0.01427087  0.91910917    -0.39200
O927        O  0.62316329  0.12020569  0.88229670    -0.39200
O928        O  0.63702972  0.12808251  0.80211865    -0.36900
O929        O  0.49806384  0.07167576  0.85532736    -0.37800
O930        O  0.50723325  0.03054688  0.91972252    -0.34000
O931        O  0.67251881  0.00085464  0.74293450    -0.35400
O932        O  0.66482023  0.93977980  0.77439233    -0.39700
C933        C  0.60694641  0.07618241  0.49202192    -0.13400
C934        C  0.64657308  0.06015937  0.50296119     0.17000
C935        C  0.67417407  0.08527500  0.53050451     0.03300
C936        C  0.65761127  0.11893789  0.55660511    -0.11900
C937        C  0.61602424  0.13277215  0.55035174    -0.03000
C938        C  0.59064528  0.11012383  0.51639801     0.02500
C939        C  0.65110005  0.01441442  0.50349176     0.09400
N940        N  0.71888731  0.07921918  0.52994003     0.65700
H941        H  0.67856773  0.13400873  0.58181163     0.18600
N942        N  0.54679104  0.11826150  0.51083811     0.76200
H943        H  0.58478428  0.05767679  0.47018821     0.10200
C944        C  0.61981657  0.99031158  0.52686539     0.03900
C945        C  0.62755008  0.94909443  0.53754904    -0.04900
C946        C  0.66807948  0.93179801  0.53465556    -0.23300
C947        C  0.69788904  0.95474703  0.50557053     0.13100
C948        C  0.68787518  0.99442454  0.48816626    -0.12400
N949        N  0.58382434  0.00849558  0.55047593     0.64800
H950        H  0.60286826  0.93415202  0.55813525     0.12600
N951        N  0.74010516  0.94061512  0.49857910     0.61400
H952        H  0.71077997  0.01033092  0.46571088     0.08800
O953        O  0.52161033  0.09389023  0.53117145    -0.40100
O954        O  0.53378084  0.14164224  0.47538258    -0.39200
O955        O  0.73668288  0.07280207  0.48792073    -0.39200
O956        O  0.74077246  0.09306384  0.56571235    -0.36900
O957        O  0.75083627  0.92772193  0.45551273    -0.37800
O958        O  0.76830161  0.95257448  0.52825683    -0.34000
O959        O  0.58878279  0.03296257  0.58660060    -0.35400
O960        O  0.54841135  0.99321283  0.54392029    -0.39700
C961        C  0.70249877  0.19884231  0.63699203    -0.13400
C962        C  0.69258596  0.19066160  0.68815863     0.17000
C963        C  0.65087387  0.19872385  0.70309896     0.03300
C964        C  0.61930408  0.20048962  0.66510011    -0.11900
C965        C  0.62905796  0.19449822  0.61285152    -0.03000
C966        C  0.67054548  0.20454940  0.60015275     0.02500
C967        C  0.72105003  0.16270399  0.71900414     0.09400
N968        N  0.64049090  0.20564574  0.75567367     0.65700
H969        H  0.58708091  0.20333347  0.67693259     0.18600
N970        N  0.68132669  0.21739056  0.55006825     0.76200
H971        H  0.73478633  0.19782904  0.62489493     0.10200
C972        C  0.71764736  0.12050903  0.71362527     0.03900
C973        C  0.74410564  0.09348306  0.73982631    -0.04900
C974        C  0.77331304  0.10586177  0.77654353    -0.23300
C975        C  0.77844415  0.14890814  0.78069558     0.13100
C976        C  0.75273835  0.17656562  0.75141706    -0.12400
N977        N  0.68381976  0.10348150  0.68686783     0.64800
H978        H  0.73776373  0.06139320  0.73616164     0.12600
N979        N  0.80804436  0.16563896  0.81492293     0.61400
H980        H  0.75680115  0.20898399  0.75526566     0.08800
O981        O  0.69925342  0.19252167  0.52087482    -0.40100
O982        O  0.68504640  0.25502510  0.54184531    -0.39200
O983        O  0.60298534  0.20449859  0.77023880    -0.39200
O984        O  0.66764052  0.21917530  0.78574485    -0.36900
O985        O  0.84431625  0.17250582  0.79882176    -0.37800
O986        O  0.79491838  0.18444077  0.85351020    -0.34000
O987        O  0.69231559  0.08059355  0.65022899    -0.35400
O988        O  0.65150527  0.09639740  0.71224651    -0.39700
C989        C  0.48828639  0.14075959  0.63345125    -0.13400
C990        C  0.50273662  0.11071443  0.66917803     0.17000
C991        C  0.54572869  0.10790099  0.67840283     0.03300
C992        C  0.57318106  0.12664646  0.64534781    -0.11900
C993        C  0.56070396  0.15600241  0.60834053    -0.03000
C994        C  0.51719367  0.16569752  0.60609688     0.02500
C995        C  0.47823123  0.07488878  0.68811119     0.09400
N996        N  0.56201558  0.08298075  0.71930493     0.65700
H997        H  0.60571585  0.11884754  0.64891312     0.18600
N998        N  0.50236700  0.20154573  0.57991461     0.76200
H999        H  0.45505033  0.14511100  0.62721956     0.10200
C1000       C  0.45831226  0.07374965  0.73586331     0.03900
C1001       C  0.45809840  0.03724828  0.76546224    -0.04900
C1002       C  0.48050711  0.00147459  0.75093954    -0.23300
C1003       C  0.49603351  0.00260009  0.69909904     0.13100
C1004       C  0.49114994  0.03769484  0.66822478    -0.12400
N1005       N  0.43937121  0.10969198  0.75586337     0.64800
H1006       H  0.44383766  0.03908200  0.80252131     0.12600
N1007       N  0.51969435  0.97054916  0.67597867     0.61400
H1008       H  0.50566041  0.03771742  0.63085462     0.08800
O1009       O  0.48127519  0.19902420  0.53933417    -0.40100
O1010       O  0.50664124  0.23570698  0.60043704    -0.39200
O1011       O  0.58232023  0.05075172  0.70994747    -0.39200
O1012       O  0.55960091  0.09536789  0.76455796    -0.36900
O1013       O  0.50306018  0.95324499  0.63852942    -0.37800
O1014       O  0.55888398  0.97316325  0.67568677    -0.34000
O1015       O  0.40020516  0.11174825  0.76072143    -0.35400
O1016       O  0.46174416  0.13605220  0.77643187    -0.39700
loop_ 
_geom_bond_atom_site_label_1 
_geom_bond_atom_site_label_2 
_geom_bond_distance 
_geom_bond_site_symmetry_2 
_ccdc_geom_bond_type 
C1           C54   1.554       .  S
C1          C937   1.576       .  S
C1          C965   1.592       .  S
C1          C993   1.579       .  S
C2          C109   1.555       .  S
C2          C881   1.569       .  S
C2          C918   1.574       .  S
C2         C1002   1.596   1_565  S
C3           C70   1.534       .  S
C3          C862   1.616       .  S
C3          C909   1.585       .  S
C3          C974   1.590       .  S
C4           C15   1.575       .  S
C4          C853   1.585       .  S
C4          C890   1.598       .  S
C4          C946   1.575       .  S
C5           C41   1.538       .  S
C5          C778   1.588       .  S
C5          C806   1.596       .  S
C5          C825   1.598       .  S
C6           C96   1.542       .  S
C6          C722   1.577   1_554  S
C6          C741   1.589       .  S
C6          C797   1.595   1_554  S
C7           C83   1.538   1_556  S
C7          C685   1.593       .  S
C7          C750   1.569   1_556  S
C7          C834   1.594       .  S
C8           C28   1.556       .  S
C8          C694   1.591       .  S
C8          C713   1.588       .  S
C8          C769   1.576   1_655  S
In9          O11   2.232       .  S
In9          O12   2.249       .  S
In9          O20   2.234       .  S
In9          O14   2.256       .  S
In9          O16   2.278       .  S
In9          O17   2.325       .  S
In9          O18   2.338       .  S
In9          O21   2.328       .  S
C10          C62   1.555       .  S
C10          O16   1.255       .  A
C10          O18   1.255       .  A
O11          C19   1.265       .  A
O12          C19   1.261       .  A
C13          O20   1.254       .  A
C13          O14   1.256       .  A
C13         C657   1.471       .  S
C15          O17   1.262       .  A
C15          O21   1.260       .  A
C19         C629   1.478       .  S
In22         O24   2.189       .  S
In22         O25   2.234       .  S
In22         O33   2.237       .  S
In22         O27   2.224       .  S
In22         O29   2.298       .  S
In22         O30   2.304       .  S
In22         O31   2.252       .  S
In22         O34   2.241       .  S
C23          C66   1.545   1_655  S
C23          O29   1.256       .  A
C23          O31   1.266       .  A
O24          C32   1.260       .  A
O25          C32   1.264       .  A
C26          O33   1.258       .  A
C26          O27   1.256       .  A
C26         C601   1.465       .  S
C28          O30   1.258       .  A
C28          O34   1.258       .  A
C32         C666   1.467       .  S
In35         O37   2.254       .  S
In35         O38   2.209       .  S
In35         O46   2.205       .  S
In35         O40   2.244       .  S
In35         O42   2.267       .  S
In35         O43   2.313       .  S
In35         O44   2.237       .  S
In35         O47   2.252       .  S
C36          C68   1.521       .  S
C36          O42   1.253       .  A
C36          O44   1.269       .  A
O37          C45   1.262       .  A
O38          C45   1.259       .  A
C39          O46   1.262       .  A
C39          O40   1.257       .  A
C39         C638   1.468       .  S
C41          O43   1.259       .  A
C41          O47   1.261       .  A
C45         C582   1.473       .  S
In48         O50   2.276       .  S
In48         O51   2.212       .  S
In48         O59   2.212       .  S
In48         O53   2.271       .  S
In48         O55   2.293       .  S
In48         O56   2.202       .  S
In48         O57   2.321       .  S
In48         O60   2.371       .  S
C49          C64   1.562       .  S
C49          O55   1.258       .  A
C49          O57   1.265       .  A
O50          C58   1.260       .  A
O51          C58   1.257       .  A
C52          O59   1.257       .  A
C52          O53   1.272       .  A
C52         C573   1.483       .  S
C54          O56   1.262       .  A
C54          O60   1.255       .  A
C58         C610   1.480       .  S
C61         C114   1.542       .  S
C61         C498   1.568       .  S
C61         C517   1.623   1_565  S
C61         C545   1.577       .  S
C62         C433   1.584       .  S
C62         C461   1.620       .  S
C62         C554   1.608       .  S
C63          C75   1.525       .  S
C63         C414   1.584       .  S
C63         C470   1.596       .  S
C63         C489   1.570       .  S
C64         C405   1.619       .  S
C64         C442   1.621       .  S
C64         C526   1.611       .  S
C65         C101   1.535       .  S
C65         C321   1.582       .  S
C65         C349   1.562       .  S
C65         C386   1.601       .  S
C66         C265   1.573       .  S
C66         C302   1.600   1_455  S
C66         C377   1.586       .  S
C67          C88   1.539       .  S
C67         C237   1.587       .  S
C67         C293   1.587       .  S
C67         C330   1.585       .  S
C68         C246   1.579       .  S
C68         C274   1.574       .  S
C68         C358   1.597       .  S
In69         O71   2.241       .  S
In69         O72   2.239       .  S
In69         O80   2.230       .  S
In69         O74   2.217       .  S
In69         O76   2.310       .  S
In69         O77   2.271   1_556  S
In69         O78   2.256       .  S
In69         O81   2.236       .  S
C70          O76   1.258       .  A
C70          O78   1.259       .  A
O71          C79   1.263       .  A
O72          C79   1.257       .  A
C73          O80   1.259       .  A
C73          O74   1.265       .  A
C73         C190   1.476       .  S
C75          O77   1.259       .  A
C75          O81   1.252   1_554  A
C79         C209   1.474   1_556  S
In82         O84   2.264       .  S
In82         O85   2.237       .  S
In82         O93   2.227       .  S
In82         O87   2.243   1_455  S
In82         O89   2.272       .  S
In82         O90   2.228       .  S
In82         O91   2.295       .  S
In82         O94   2.341       .  S
C83          O89   1.247       .  A
C83          O91   1.261       .  A
O84          C92   1.263       .  A
O85          C92   1.262       .  A
C86          O93   1.260       .  A
C86          O87   1.262   1_455  A
C86         C218   1.474   1_455  S
C88          O90   1.256       .  A
C88          O94   1.260       .  A
C92         C153   1.481       .  S
In95         O97   2.254       .  S
In95         O98   2.202       .  S
In95        O106   2.211       .  S
In95        O100   2.224       .  S
In95        O102   2.307       .  S
In95        O103   2.235       .  S
In95        O104   2.244       .  S
In95        O107   2.280       .  S
C96         O102   1.256       .  A
C96         O104   1.266       .  A
O97         C105   1.263       .  A
O98         C105   1.256       .  A
C99         O106   1.261       .  A
C99         O100   1.258       .  A
C99         C134   1.460       .  S
C101        O103   1.258       .  A
C101        O107   1.254       .  A
C105        C181   1.476       .  S
In108       O110   2.243   1_565  S
In108       O111   2.248   1_565  S
In108       O119   2.249       .  S
In108       O113   2.268       .  S
In108       O115   2.313       .  S
In108       O116   2.287   1_556  S
In108       O117   2.291       .  S
In108       O120   2.260       .  S
C109        O115   1.258       .  A
C109        O117   1.261       .  A
O110        C118   1.262       .  A
O111        C118   1.259       .  A
C112        O119   1.253       .  A
C112        O113   1.261       .  A
C112        C162   1.486       .  S
C114        O116   1.258       .  A
C114        O120   1.262   1_554  A
C118        C125   1.477       .  S
C121        C122   1.399   1_556  A
C121        C126   1.396       .  A
C121        H131   1.084       .  S
C122        C127   1.475       .  S
C122        C123   1.411       .  A
C123        C124   1.396   1_554  A
C123        N128   1.430       .  S
C124        C125   1.402       .  A
C124        H129   1.084       .  S
C125        C126   1.415       .  A
C126        N130   1.427       .  S
C127        C132   1.412       .  A
C127        C136   1.399       .  A
N128        O143   1.262       .  A
N128        O144   1.262       .  A
N130        O141   1.261       .  A
N130        O142   1.261       .  A
C132        C133   1.397       .  A
C132        N137   1.430       .  S
C133        C134   1.398       .  A
C133        H138   1.084       .  S
C134        C135   1.412       .  A
C135        C136   1.393       .  A
C135        N139   1.430       .  S
C136        H140   1.084   1_554  S
N137        O147   1.262       .  A
N137        O148   1.262       .  A
N139        O145   1.262       .  A
N139        O146   1.262   1_554  A
C149        C150   1.405       .  A
C149        C154   1.404       .  A
C149        H159   1.084       .  S
C150        C155   1.486       .  S
C150        C151   1.409       .  A
C151        C152   1.399       .  A
C151        N156   1.429       .  S
C152        C153   1.404       .  A
C152        H157   1.083       .  S
C153        C154   1.412       .  A
C154        N158   1.428       .  S
C155        C160   1.410   1_554  A
C155        C164   1.401       .  A
N156        O171   1.262       .  A
N156        O172   1.262   1_554  A
N158        O169   1.262       .  A
N158        O170   1.262       .  A
C160        C161   1.402       .  A
C160        N165   1.428       .  S
C161        C162   1.405       .  A
C161        H166   1.084       .  S
C162        C163   1.417   1_556  A
C163        C164   1.400       .  A
C163        N167   1.430       .  S
C164        H168   1.084       .  S
N165        O175   1.262       .  A
N165        O176   1.262       .  A
N167        O173   1.262       .  A
N167        O174   1.262       .  A
C177        C178   1.403       .  A
C177        C182   1.394       .  A
C177        H187   1.083       .  S
C178        C183   1.475   1_455  S
C178        C179   1.406       .  A
C179        C180   1.396       .  A
C179        N184   1.429   1_455  S
C180        C181   1.408       .  A
C180        H185   1.081       .  S
C181        C182   1.407       .  A
C182        N186   1.428       .  S
C183        C188   1.410   1_554  A
C183        C192   1.400       .  A
N184        O199   1.262       .  A
N184        O200   1.262       .  A
N186        O197   1.262       .  A
N186        O198   1.262       .  A
C188        C189   1.392       .  A
C188        N193   1.430   1_655  S
C189        C190   1.401       .  A
C189        H194   1.084       .  S
C190        C191   1.418   1_556  A
C191        C192   1.401       .  A
C191        N195   1.430       .  S
C192        H196   1.084       .  S
N193        O203   1.262       .  A
N193        O204   1.261       .  A
N195        O201   1.262       .  A
N195        O202   1.262       .  A
C205        C206   1.398       .  A
C205        C210   1.399   1_565  A
C205        H215   1.084       .  S
C206        C211   1.476       .  S
C206        C207   1.411       .  A
C207        C208   1.397   1_554  A
C207        N212   1.430       .  S
C208        C209   1.401   1_566  A
C208        H213   1.084       .  S
C209        C210   1.416       .  A
C210        N214   1.429       .  S
C211        C216   1.407   1_655  A
C211        C220   1.403       .  A
N212        O227   1.262   1_554  A
N212        O228   1.262   1_654  A
N214        O225   1.262       .  A
N214        O226   1.262       .  A
C216        C217   1.398       .  A
C216        N221   1.429       .  S
C217        C218   1.406   1_455  A
C217        H222   1.084       .  S
C218        C219   1.408       .  A
C219        C220   1.397       .  A
C219        N223   1.429       .  S
C220        H224   1.084       .  S
N221        O231   1.262       .  A
N221        O232   1.262       .  A
N223        O229   1.262       .  A
N223        O230   1.262       .  A
C233        C234   1.397       .  A
C233        C238   1.400       .  A
C233        H243   1.084       .  S
C234        C239   1.491       .  S
C234        C235   1.413       .  A
C235        C236   1.415       .  A
C235        N240   1.427       .  S
C236        C237   1.417       .  A
C236        H241   1.086       .  S
C237        C238   1.424       .  A
C238        N242   1.426       .  S
C239        C244   1.408       .  A
C239        C248   1.395       .  A
N240        O255   1.262       .  A
N240        O256   1.262       .  A
N242        O253   1.261       .  A
N242        O254   1.262       .  A
C244        C245   1.414       .  A
C244        N249   1.427       .  S
C245        C246   1.416       .  A
C245        H250   1.077       .  S
C246        C247   1.439       .  A
C247        C248   1.398       .  A
C247        N251   1.443       .  S
C248        H252   1.085       .  S
N249        O259   1.261       .  A
N249        O260   1.262       .  A
N251        O257   1.259       .  A
N251        O258   1.263       .  A
C261        C262   1.391       .  A
C261        C266   1.396       .  A
C261        H271   1.083       .  S
C262        C267   1.479       .  S
C262        C263   1.406       .  A
C263        C264   1.388       .  A
C263        N268   1.428       .  S
C264        C265   1.416       .  A
C264        H269   1.077       .  S
C265        C266   1.440       .  A
C266        N270   1.430       .  S
C267        C272   1.403       .  A
C267        C276   1.392       .  A
N268        O283   1.263       .  A
N268        O284   1.261       .  A
N270        O281   1.260       .  A
N270        O282   1.262       .  A
C272        C273   1.381       .  A
C272        N277   1.426       .  S
C273        C274   1.420       .  A
C273        H278   1.083       .  S
C274        C275   1.434       .  A
C275        C276   1.400       .  A
C275        N279   1.420       .  S
C276        H280   1.081       .  S
N277        O287   1.261       .  A
N277        O288   1.260       .  A
N279        O285   1.260       .  A
N279        O286   1.264       .  A
C289        C290   1.412       .  A
C289        C294   1.432   1_655  A
C289        H299   1.083       .  S
C290        C295   1.497       .  S
C290        C291   1.396   1_655  A
C291        C292   1.379       .  A
C291        N296   1.431       .  S
C292        C293   1.419       .  A
C292        H297   1.078       .  S
C293        C294   1.435       .  A
C294        N298   1.428   1_455  S
C295        C300   1.398   1_655  A
C295        C304   1.406       .  A
N296        O311   1.258       .  A
N296        O312   1.261       .  A
N298        O309   1.262       .  A
N298        O310   1.261       .  A
C300        C301   1.389       .  A
C300        N305   1.432       .  S
C301        C302   1.423   1_455  A
C301        H306   1.071       .  S
C302        C303   1.439       .  A
C303        C304   1.425       .  A
C303        N307   1.430       .  S
C304        H308   1.083       .  S
N305        O315   1.261       .  A
N305        O316   1.262       .  A
N307        O313   1.262       .  A
N307        O314   1.262       .  A
C317        C318   1.392       .  A
C317        C322   1.395       .  A
C317        H327   1.080       .  S
C318        C323   1.511       .  S
C318        C319   1.410       .  A
C319        C320   1.405       .  A
C319        N324   1.431       .  S
C320        C321   1.414       .  A
C320        H325   1.057       .  S
C321        C322   1.447       .  A
C322        N326   1.438       .  S
C323        C328   1.419       .  A
C323        C332   1.407       .  A
N324        O339   1.259       .  A
N324        O340   1.262       .  A
N326        O337   1.262       .  A
N326        O338   1.260       .  A
C328        C329   1.392       .  A
C328        N333   1.430       .  S
C329        C330   1.411       .  A
C329        H334   1.021       .  S
C330        C331   1.426       .  A
C331        C332   1.414       .  A
C331        N335   1.425       .  S
C332        H336   1.077       .  S
N333        O343   1.260       .  A
N333        O344   1.262       .  A
N335        O341   1.261   1_455  A
N335        O342   1.258       .  A
C345        C346   1.399       .  A
C345        C350   1.394       .  A
C345        H355   1.075       .  S
C346        C351   1.499       .  S
C346        C347   1.413       .  A
C347        C348   1.418       .  A
C347        N352   1.427       .  S
C348        C349   1.417       .  A
C348        H353   1.082       .  S
C349        C350   1.429       .  A
C350        N354   1.440       .  S
C351        C356   1.411       .  A
C351        C360   1.404       .  A
N352        O367   1.262       .  A
N352        O368   1.261       .  A
N354        O365   1.260       .  A
N354        O366   1.260       .  A
C356        C357   1.402       .  A
C356        N361   1.428       .  S
C357        C358   1.419       .  A
C357        H362   1.082       .  S
C358        C359   1.414       .  A
C359        C360   1.418       .  A
C359        N363   1.433       .  S
C360        H364   1.082       .  S
N361        O371   1.261       .  A
N361        O372   1.262       .  A
N363        O369   1.262       .  A
N363        O370   1.260       .  A
C373        C374   1.411       .  A
C373        C378   1.420       .  A
C373        H383   1.081       .  S
C374        C379   1.522       .  S
C374        C375   1.412       .  A
C375        C376   1.400       .  A
C375        N380   1.427       .  S
C376        C377   1.415       .  A
C376        H381   1.072   1_455  S
C377        C378   1.432       .  A
C378        N382   1.429       .  S
C379        C384   1.411       .  A
C379        C388   1.405       .  A
N380        O395   1.262   1_455  A
N380        O396   1.258       .  A
N382        O393   1.262       .  A
N382        O394   1.261   1_455  A
C384        C385   1.409       .  A
C384        N389   1.425       .  S
C385        C386   1.420       .  A
C385        H390   1.082       .  S
C386        C387   1.433       .  A
C387        C388   1.415       .  A
C387        N391   1.428       .  S
C388        H392   1.083       .  S
N389        O399   1.262       .  A
N389        O400   1.257       .  A
N391        O397   1.262       .  A
N391        O398   1.262       .  A
C401        C402   1.410       .  A
C401        C406   1.426       .  A
C401        H411   1.082       .  S
C402        C407   1.514       .  S
C402        C403   1.417       .  A
C403        C404   1.404       .  A
C403        N408   1.429       .  S
C404        C405   1.418       .  A
C404        H409   1.081       .  S
C405        C406   1.429       .  A
C406        N410   1.438       .  S
C407        C412   1.415       .  A
C407        C416   1.394       .  A
N408        O423   1.263       .  A
N408        O424   1.261       .  A
N410        O421   1.263       .  A
N410        O422   1.263       .  A
C412        C413   1.423       .  A
C412        N417   1.426       .  S
C413        C414   1.422       .  A
C413        H418   1.078       .  S
C414        C415   1.419       .  A
C415        C416   1.393       .  A
C415        N419   1.421       .  S
C416        H420   1.075       .  S
N417        O427   1.261       .  A
N417        O428   1.262       .  A
N419        O425   1.261       .  A
N419        O426   1.255       .  A
C429        C430   1.392   1_565  A
C429        C434   1.409       .  A
C429        H439   1.080       .  S
C430        C435   1.537       .  S
C430        C431   1.440   1_545  A
C431        C432   1.400       .  A
C431        N436   1.426   1_565  S
C432        C433   1.395       .  A
C432        H437   1.079       .  S
C433        C434   1.431       .  A
C434        N438   1.411       .  S
C435        C440   1.431       .  A
C435        C444   1.407       .  A
N436        O451   1.256       .  A
N436        O452   1.263       .  A
N438        O449   1.257       .  A
N438        O450   1.251       .  A
C440        C441   1.419       .  A
C440        N445   1.437       .  S
C441        C442   1.420       .  A
C441        H446   1.084       .  S
C442        C443   1.435       .  A
C443        C444   1.429       .  A
C443        N447   1.426       .  S
C444        H448   1.083       .  S
N445        O455   1.262       .  A
N445        O456   1.261       .  A
N447        O453   1.260       .  A
N447        O454   1.263       .  A
C457        C458   1.398       .  A
C457        C462   1.417       .  A
C457        H467   1.079       .  S
C458        C463   1.523       .  S
C458        C459   1.409       .  A
C459        C460   1.401       .  A
C459        N464   1.425       .  S
C460        C461   1.423       .  A
C460        H465   1.068       .  S
C461        C462   1.440       .  A
C462        N466   1.417       .  S
C463        C468   1.417       .  A
C463        C472   1.404       .  A
N464        O479   1.262       .  A
N464        O480   1.258       .  A
N466        O477   1.261       .  A
N466        O478   1.263       .  A
C468        C469   1.408   1_565  A
C468        N473   1.432   1_565  S
C469        C470   1.421       .  A
C469        H474   1.081       .  S
C470        C471   1.437   1_545  A
C471        C472   1.413       .  A
C471        N475   1.432       .  S
C472        H476   1.082       .  S
N473        O483   1.262       .  A
N473        O484   1.260       .  A
N475        O481   1.263       .  A
N475        O482   1.260       .  A
C485        C486   1.390       .  A
C485        C490   1.391       .  A
C485        H495   1.077       .  S
C486        C491   1.493       .  S
C486        C487   1.411   1_546  A
C487        C488   1.401       .  A
C487        N492   1.435   1_554  S
C488        C489   1.417   1_565  A
C488        H493   1.064       .  S
C489        C490   1.433   1_554  A
C490        N494   1.432       .  S
C491        C496   1.411   1_556  A
C491        C500   1.392   1_545  A
N492        O507   1.261       .  A
N492        O508   1.260   1_556  A
N494        O505   1.262   1_556  A
N494        O506   1.259       .  A
C496        C497   1.386       .  A
C496        N501   1.429       .  S
C497        C498   1.403   1_545  A
C497        H502   1.068       .  S
C498        C499   1.449   1_554  A
C499        C500   1.401       .  A
C499        N503   1.436       .  S
C500        H504   1.083       .  S
N501        O511   1.261   1_554  A
N501        O512   1.259       .  A
N503        O509   1.262       .  A
N503        O510   1.262   1_556  A
C513        C514   1.396       .  A
C513        C518   1.421       .  A
C513        H523   1.083       .  S
C514        C519   1.524       .  S
C514        C515   1.430       .  A
C515        C516   1.416   1_545  A
C515        N520   1.432       .  S
C516        C517   1.419   1_565  A
C516        H521   1.081       .  S
C517        C518   1.441       .  A
C518        N522   1.419       .  S
C519        C524   1.430       .  A
C519        C528   1.354       .  A
N520        O535   1.261       .  A
N520        O536   1.264   1_545  A
N522        O533   1.261       .  A
N522        O534   1.257       .  A
C524        C525   1.454       .  A
C524        N529   1.424       .  S
C525        C526   1.430       .  A
C525        H530   1.082       .  S
C526        C527   1.423       .  A
C527        C528   1.379       .  A
C527        N531   1.403       .  S
C528        H532   1.083       .  S
N529        O539   1.260       .  A
N529        O540   1.262       .  A
N531        O537   1.247       .  A
N531        O538   1.256       .  A
C541        C542   1.382       .  A
C541        C546   1.386       .  A
C541        H551   1.087       .  S
C542        C547   1.498       .  S
C542        C543   1.421       .  A
C543        C544   1.429       .  A
C543        N548   1.427       .  S
C544        C545   1.420       .  A
C544        H549   1.082       .  S
C545        C546   1.427       .  A
C546        N550   1.418       .  S
C547        C552   1.420       .  A
C547        C556   1.393       .  A
N548        O563   1.262       .  A
N548        O564   1.262       .  A
N550        O561   1.257       .  A
N550        O562   1.259   1_565  A
C552        C553   1.424       .  A
C552        N557   1.431       .  S
C553        C554   1.422       .  A
C553        H558   1.083       .  S
C554        C555   1.423       .  A
C555        C556   1.408       .  A
C555        N559   1.415       .  S
C556        H560   1.084       .  S
N557        O567   1.262       .  A
N557        O568   1.262       .  A
N559        O565   1.261       .  A
N559        O566   1.262       .  A
C569        C570   1.395       .  A
C569        C574   1.394       .  A
C569        H579   1.085       .  S
C570        C575   1.478       .  S
C570        C571   1.414       .  A
C571        C572   1.403       .  A
C571        N576   1.427       .  S
C572        C573   1.401       .  A
C572        H577   1.084       .  S
C573        C574   1.419       .  A
C574        N578   1.429       .  S
C575        C580   1.409       .  A
C575        C584   1.403       .  A
N576        O591   1.262       .  A
N576        O592   1.262       .  A
N578        O589   1.262       .  A
N578        O590   1.262       .  A
C580        C581   1.398       .  A
C580        N585   1.429       .  S
C581        C582   1.405       .  A
C581        H586   1.081       .  S
C582        C583   1.410       .  A
C583        C584   1.397       .  A
C583        N587   1.429       .  S
C584        H588   1.084       .  S
N585        O595   1.262       .  A
N585        O596   1.262       .  A
N587        O593   1.262       .  A
N587        O594   1.262       .  A
C597        C598   1.404       .  A
C597        C602   1.396       .  A
C597        H607   1.085       .  S
C598        C603   1.469       .  S
C598        C599   1.403       .  A
C599        C600   1.396       .  A
C599        N604   1.428       .  S
C600        C601   1.406       .  A
C600        H605   1.083       .  S
C601        C602   1.407       .  A
C602        N606   1.429       .  S
C603        C608   1.402       .  A
C603        C612   1.401       .  A
N604        O619   1.262       .  A
N604        O620   1.261       .  A
N606        O617   1.262       .  A
N606        O618   1.262       .  A
C608        C609   1.397       .  A
C608        N613   1.429       .  S
C609        C610   1.407       .  A
C609        H614   1.081       .  S
C610        C611   1.411       .  A
C611        C612   1.397       .  A
C611        N615   1.428       .  S
C612        H616   1.084       .  S
N613        O623   1.262       .  A
N613        O624   1.262       .  A
N615        O621   1.261       .  A
N615        O622   1.262       .  A
C625        C626   1.394       .  A
C625        C630   1.397       .  A
C625        H635   1.084       .  S
C626        C631   1.467       .  S
C626        C627   1.406       .  A
C627        C628   1.395       .  A
C627        N632   1.429       .  S
C628        C629   1.404       .  A
C628        H633   1.084       .  S
C629        C630   1.418       .  A
C630        N634   1.426       .  S
C631        C636   1.411       .  A
C631        C640   1.396       .  A
N632        O647   1.262       .  A
N632        O648   1.261       .  A
N634        O645   1.261       .  A
N634        O646   1.262       .  A
C636        C637   1.390       .  A
C636        N641   1.428       .  S
C637        C638   1.398       .  A
C637        H642   1.084       .  S
C638        C639   1.415       .  A
C639        C640   1.395       .  A
C639        N643   1.426       .  S
C640        H644   1.085       .  S
N641        O651   1.262       .  A
N641        O652   1.261       .  A
N643        O649   1.262       .  A
N643        O650   1.261       .  A
C653        C654   1.401       .  A
C653        C658   1.395       .  A
C653        H663   1.083       .  S
C654        C659   1.477       .  S
C654        C655   1.413       .  A
C655        C656   1.395       .  A
C655        N660   1.431       .  S
C656        C657   1.402       .  A
C656        H661   1.084       .  S
C657        C658   1.410       .  A
C658        N662   1.428       .  S
C659        C664   1.409       .  A
C659        C668   1.405       .  A
N660        O675   1.262       .  A
N660        O676   1.262       .  A
N662        O673   1.262       .  A
N662        O674   1.262       .  A
C664        C665   1.392       .  A
C664        N669   1.429       .  S
C665        C666   1.404       .  A
C665        H670   1.083       .  S
C666        C667   1.408       .  A
C667        C668   1.394       .  A
C667        N671   1.429       .  S
C668        H672   1.083       .  S
N669        O679   1.262       .  A
N669        O680   1.261       .  A
N671        O677   1.262       .  A
N671        O678   1.262       .  A
C681        C682   1.412       .  A
C681        C686   1.419       .  A
C681        H691   1.077       .  S
C682        C687   1.546       .  S
C682        C683   1.430       .  A
C683        C684   1.401   1_655  A
C683        N688   1.426       .  S
C684        C685   1.408       .  A
C684        H689   1.081       .  S
C685        C686   1.434   1_455  A
C686        N690   1.429   1_556  S
C687        C692   1.430       .  A
C687        C696   1.407       .  A
N688        O703   1.262       .  A
N688        O704   1.262   1_655  A
N690        O701   1.262       .  A
N690        O702   1.262       .  A
C692        C693   1.415       .  A
C692        N697   1.427       .  S
C693        C694   1.406       .  A
C693        H698   1.057       .  S
C694        C695   1.429       .  A
C695        C696   1.407       .  A
C695        N699   1.426       .  S
C696        H700   1.073       .  S
N697        O707   1.262       .  A
N697        O708   1.262       .  A
N699        O705   1.260       .  A
N699        O706   1.261       .  A
C709        C710   1.396       .  A
C709        C714   1.401   1_455  A
C709        H719   1.082       .  S
C710        C715   1.486       .  S
C710        C711   1.410       .  A
C711        C712   1.415   1_455  A
C711        N716   1.428       .  S
C712        C713   1.422       .  A
C712        H717   1.079       .  S
C713        C714   1.421       .  A
C714        N718   1.439       .  S
C715        C720   1.397       .  A
C715        C724   1.408       .  A
N716        O731   1.261       .  A
N716        O732   1.262       .  A
N718        O729   1.263       .  A
N718        O730   1.263       .  A
C720        C721   1.378       .  A
C720        N725   1.421       .  S
C721        C722   1.408       .  A
C721        H726   1.044       .  S
C722        C723   1.426       .  A
C723        C724   1.423       .  A
C723        N727   1.424       .  S
C724        H728   1.079       .  S
N725        O735   1.261       .  A
N725        O736   1.259       .  A
N727        O733   1.260   1_556  A
N727        O734   1.262       .  A
C737        C738   1.389       .  A
C737        C742   1.394       .  A
C737        H747   1.076       .  S
C738        C743   1.505       .  S
C738        C739   1.417       .  A
C739        C740   1.405       .  A
C739        N744   1.434       .  S
C740        C741   1.410       .  A
C740        H745   1.062       .  S
C741        C742   1.439       .  A
C742        N746   1.433       .  S
C743        C748   1.417       .  A
C743        C752   1.395       .  A
N744        O759   1.263       .  A
N744        O760   1.262       .  A
N746        O757   1.263       .  A
N746        O758   1.253       .  A
C748        C749   1.390       .  A
C748        N753   1.427       .  S
C749        C750   1.409       .  A
C749        H754   1.072   1_554  S
C750        C751   1.437       .  A
C751        C752   1.398       .  A
C751        N755   1.432       .  S
C752        H756   1.082       .  S
N753        O763   1.263       .  A
N753        O764   1.260   1_554  A
N755        O761   1.260       .  A
N755        O762   1.262       .  A
C765        C766   1.401       .  A
C765        C770   1.400       .  A
C765        H775   1.079       .  S
C766        C771   1.494       .  S
C766        C767   1.413       .  A
C767        C768   1.395       .  A
C767        N772   1.433       .  S
C768        C769   1.419       .  A
C768        H773   1.073       .  S
C769        C770   1.432       .  A
C770        N774   1.440       .  S
C771        C776   1.411       .  A
C771        C780   1.399       .  A
N772        O787   1.260       .  A
N772        O788   1.262       .  A
N774        O785   1.259       .  A
N774        O786   1.262       .  A
C776        C777   1.401       .  A
C776        N781   1.435       .  S
C777        C778   1.418       .  A
C777        H782   1.053       .  S
C778        C779   1.424       .  A
C779        C780   1.397       .  A
C779        N783   1.428       .  S
C780        H784   1.068       .  S
N781        O791   1.262       .  A
N781        O792   1.260       .  A
N783        O789   1.259       .  A
N783        O790   1.260       .  A
C793        C794   1.419       .  A
C793        C798   1.426       .  A
C793        H803   1.083       .  S
C794        C799   1.515       .  S
C794        C795   1.410       .  A
C795        C796   1.402       .  A
C795        N800   1.426       .  S
C796        C797   1.418       .  A
C796        H801   1.082       .  S
C797        C798   1.416       .  A
C798        N802   1.429   1_556  S
C799        C804   1.392       .  A
C799        C808   1.410       .  A
N800        O815   1.262       .  A
N800        O816   1.262       .  A
N802        O813   1.260       .  A
N802        O814   1.261       .  A
C804        C805   1.389       .  A
C804        N809   1.415       .  S
C805        C806   1.411       .  A
C805        H810   1.073       .  S
C806        C807   1.436       .  A
C807        C808   1.434       .  A
C807        N811   1.424       .  S
C808        H812   1.083       .  S
N809        O819   1.261       .  A
N809        O820   1.256       .  A
N811        O817   1.262       .  A
N811        O818   1.260       .  A
C821        C822   1.405       .  A
C821        C826   1.414       .  A
C821        H831   1.083       .  S
C822        C827   1.508       .  S
C822        C823   1.415       .  A
C823        C824   1.419       .  A
C823        N828   1.428       .  S
C824        C825   1.409       .  A
C824        H829   1.084       .  S
C825        C826   1.425       .  A
C826        N830   1.438       .  S
C827        C832   1.403       .  A
C827        C836   1.407       .  A
N828        O843   1.262       .  A
N828        O844   1.261       .  A
N830        O841   1.262       .  A
N830        O842   1.263       .  A
C832        C833   1.390       .  A
C832        N837   1.421       .  S
C833        C834   1.411       .  A
C833        H838   1.081       .  S
C834        C835   1.438       .  A
C835        C836   1.428       .  A
C835        N839   1.427       .  S
C836        H840   1.083       .  S
N837        O847   1.256       .  A
N837        O848   1.259       .  A
N839        O845   1.262       .  A
N839        O846   1.261       .  A
C849        C850   1.371       .  A
C849        C854   1.378       .  A
C849        H859   1.087   1_565  S
C850        C855   1.499       .  S
C850        C851   1.420       .  A
C851        C852   1.435       .  A
C851        N856   1.427       .  S
C852        C853   1.423       .  A
C852        H857   1.083       .  S
C853        C854   1.445       .  A
C854        N858   1.422       .  S
C855        C860   1.415   1_565  A
C855        C864   1.394       .  A
N856        O871   1.262       .  A
N856        O872   1.261       .  A
N858        O869   1.260       .  A
N858        O870   1.260   1_565  A
C860        C861   1.415       .  A
C860        N865   1.431       .  S
C861        C862   1.424       .  A
C861        H866   1.083       .  S
C862        C863   1.435   1_545  A
C863        C864   1.414       .  A
C863        N867   1.436       .  S
C864        H868   1.082       .  S
N865        O875   1.261       .  A
N865        O876   1.262       .  A
N867        O873   1.260       .  A
N867        O874   1.264       .  A
C877        C878   1.410       .  A
C877        C882   1.418       .  A
C877        H887   1.071       .  S
C878        C883   1.531       .  S
C878        C879   1.423       .  A
C879        C880   1.412       .  A
C879        N884   1.439       .  S
C880        C881   1.413       .  A
C880        H885   1.082       .  S
C881        C882   1.417       .  A
C882        N886   1.441       .  S
C883        C888   1.422       .  A
C883        C892   1.405       .  A
N884        O899   1.263       .  A
N884        O900   1.263       .  A
N886        O897   1.263       .  A
N886        O898   1.262       .  A
C888        C889   1.417       .  A
C888        N893   1.422       .  S
C889        C890   1.417       .  A
C889        H894   1.081       .  S
C890        C891   1.430       .  A
C891        C892   1.399       .  A
C891        N895   1.428       .  S
C892        H896   1.077       .  S
N893        O903   1.261       .  A
N893        O904   1.260       .  A
N895        O901   1.261       .  A
N895        O902   1.262       .  A
C905        C906   1.402       .  A
C905        C910   1.405       .  A
C905        H915   1.083   1_545  S
C906        C911   1.482       .  S
C906        C907   1.405       .  A
C907        C908   1.394       .  A
C907        N912   1.429       .  S
C908        C909   1.421       .  A
C908        H913   1.082       .  S
C909        C910   1.420       .  A
C910        N914   1.433   1_545  S
C911        C916   1.400   1_545  A
C911        C920   1.390       .  A
N912        O927   1.260       .  A
N912        O928   1.257       .  A
N914        O925   1.262       .  A
N914        O926   1.259   1_565  A
C916        C917   1.395       .  A
C916        N921   1.429       .  S
C917        C918   1.417       .  A
C917        H922   1.074       .  S
C918        C919   1.434   1_565  A
C919        C920   1.400       .  A
C919        N923   1.424       .  S
C920        H924   1.080       .  S
N921        O931   1.263   1_565  A
N921        O932   1.259       .  A
N923        O929   1.261       .  A
N923        O930   1.261       .  A
C933        C934   1.391       .  A
C933        C938   1.389       .  A
C933        H943   1.107       .  S
C934        C939   1.509       .  S
C934        C935   1.423       .  A
C935        C936   1.407       .  A
C935        N940   1.442       .  S
C936        C937   1.407       .  A
C936        H941   1.073       .  S
C937        C938   1.430       .  A
C938        N942   1.431       .  S
C939        C944   1.425   1_545  A
C939        C948   1.401   1_545  A
N940        O955   1.261       .  A
N940        O956   1.263       .  A
N942        O953   1.263       .  A
N942        O954   1.261       .  A
C944        C945   1.397       .  A
C944        N949   1.435   1_565  S
C945        C946   1.410       .  A
C945        H950   1.081       .  S
C946        C947   1.442       .  A
C947        C948   1.407       .  A
C947        N951   1.435       .  S
C948        H952   1.081   1_565  S
N949        O959   1.263       .  A
N949        O960   1.262   1_545  A
N951        O957   1.258       .  A
N951        O958   1.261       .  A
C961        C962   1.402       .  A
C961        C966   1.411       .  A
C961        H971   1.083       .  S
C962        C967   1.505       .  S
C962        C963   1.415       .  A
C963        C964   1.415       .  A
C963        N968   1.438       .  S
C964        C965   1.421       .  A
C964        H969   1.082       .  S
C965        C966   1.416       .  A
C966        N970   1.418       .  S
C967        C972   1.404       .  A
C967        C976   1.407       .  A
N968        O983   1.263       .  A
N968        O984   1.262       .  A
N970        O981   1.260       .  A
N970        O982   1.262       .  A
C972        C973   1.388       .  A
C972        N977   1.417       .  S
C973        C974   1.408       .  A
C973        H978   1.085       .  S
C974        C975   1.435       .  A
C975        C976   1.427       .  A
C975        N979   1.426       .  S
C976        H980   1.083       .  S
N977        O987   1.256       .  A
N977        O988   1.257       .  A
N979        O985   1.261       .  A
N979        O986   1.262       .  A
C989        C990   1.420       .  A
C989        C994   1.436       .  A
C989        H999   1.083       .  S
C990        C995   1.508       .  S
C990        C991   1.398       .  A
C991        C992   1.384       .  A
C991        N996   1.429       .  S
C992        C993   1.409       .  A
C992        H997   1.072       .  S
C993        C994   1.424       .  A
C994        N998   1.427       .  S
C995       C1000   1.407       .  A
C995       C1004   1.393       .  A
N996       O1011   1.261       .  A
N996       O1012   1.261       .  A
N998       O1009   1.261       .  A
N998       O1010   1.263       .  A
C1000      C1001   1.420       .  A
C1000      N1005   1.426       .  S
C1001      C1002   1.424       .  A
C1001      H1006   1.077       .  S
C1002      C1003   1.448       .  A
C1003      C1004   1.405       .  A
C1003      N1007   1.430   1_545  S
C1004      H1008   1.086       .  S
N1005      O1015   1.262       .  A
N1005      O1016   1.261       .  A
N1007      O1013   1.262       .  A
N1007      O1014   1.260       .  A
