geometry optimzed in LAMMPS
_audit_creation_date              2020-11-30 
_audit_creation_method            'lammps2cif' 
_symmetry_space_group_name_H-M    'P1' 
_symmetry_Int_Tables_number       1 
_symmetry_cell_setting            triclinic 
loop_ 
_symmetry_equiv_pos_as_xyz 
  x,y,z 
_cell_length_a                    29.84117751 
_cell_length_b                    29.913390978690504 
_cell_length_c                    29.865968382985905 
_cell_angle_alpha                 89.38226406989278 
_cell_angle_beta                  89.6959521137893 
_cell_angle_gamma                 89.68832950893093 
loop_ 
_atom_site_label 
_atom_site_type_symbol 
_atom_site_fract_x 
_atom_site_fract_y 
_atom_site_fract_z 
_atom_site_charge 
C1          C  0.32945860  0.33581601  0.15869114    -0.02400
C2          C  0.32295211  0.10248525  0.39694430    -0.02400
C3          C  0.10162251  0.10609441  0.14862720    -0.02400
C4          C  0.07977124  0.33096026  0.38393393    -0.02400
C5          C  0.32192669  0.10659311  0.64412921    -0.02400
C6          C  0.10504373  0.09460857  0.88386326    -0.02400
C7          C  0.08994614  0.33419734  0.66552189    -0.02400
C8          C  0.33824884  0.31688737  0.89695493    -0.02400
C9          C  0.36163121  0.36872815  0.13313189     0.42600
N10         N  0.38226614  0.41126275  0.07661244     0.01500
C11         C  0.58695428  0.38697361  0.95562102    -0.06400
H12         H  0.61572883  0.41891764  0.10697786     0.07000
C13         C  0.52963874  0.58611339  0.08741118    -0.06700
Co14       Co  0.46854772  0.37864747  0.03177666     0.74200
N15         N  0.55232937  0.41278339  0.07719744    -0.25900
Co16       Co  0.55145998  0.46228729  0.02355157     0.74100
C17         C  0.57445638  0.57868689  0.10767768     0.42700
N18         N  0.41279360  0.54510438  0.07177946     0.01100
N19         N  0.55100927  0.52038773  0.06735833     0.01200
N20         N  0.53037738  0.33851820  0.95535163    -0.46800
H21         H  0.42960853  0.33091693  0.12882916     0.07000
N22         N  0.52026092  0.38272638  0.08148938     0.01500
N23         N  0.54915146  0.51156924  0.96888289     0.01200
C24         C  0.57184004  0.56085961  0.91729444     0.42800
N25         N  0.38165540  0.51357514  0.07212667    -0.25400
C26         C  0.40898962  0.33866609  0.95523311    -0.06300
N27         N  0.34866669  0.40237487  0.10498697    -0.46500
N28         N  0.58209850  0.52172579  0.93953737    -0.46700
C29         C  0.36534320  0.34647456  0.93267658     0.42600
N30         N  0.52073590  0.37378856  0.98138679     0.01500
N31         N  0.38046165  0.50743617  0.97185760    -0.25400
N32         N  0.41654751  0.38358823  0.08147588    -0.25900
N33         N  0.40814297  0.54177575  0.97128290     0.01100
H34         H  0.31925699  0.49405914  0.93721571     0.07000
H35         H  0.50777855  0.60281758  0.93042854     0.07000
N36         N  0.55300189  0.40408484  0.98062096    -0.25900
N37         N  0.51761479  0.54940023  0.06479242    -0.25600
N38         N  0.38358522  0.40238119  0.97822796     0.01500
C39         C  0.57036020  0.36008757  0.13233610     0.42900
C40         C  0.35200959  0.52352774  0.10539184    -0.06800
N41         N  0.51614960  0.54179098  0.96783745    -0.25600
H42         H  0.51143120  0.61630911  0.08331725     0.07000
N43         N  0.52943822  0.35225466  0.11336534    -0.46800
H44         H  0.32272179  0.50395100  0.11270795     0.07000
C45         C  0.35603523  0.55989334  0.92108014     0.42700
C46         C  0.40769131  0.35736930  0.11731685    -0.06300
Co47       Co  0.38190705  0.45879152  0.02413317     0.73800
N48         N  0.40522968  0.57598351  0.10356763    -0.46500
C49         C  0.57138053  0.34435706  0.93516566     0.43000
N50         N  0.35254224  0.38756468  0.94943249    -0.46500
Co51       Co  0.46347275  0.54450020  0.01874780     0.73900
C52         C  0.52720693  0.57299536  0.93649434    -0.06800
C53         C  0.58521202  0.40077117  0.10611905    -0.06400
N54         N  0.41692709  0.37339581  0.98241993    -0.25900
N55         N  0.58506549  0.53741487  0.09086208    -0.46700
H56         H  0.61994999  0.40166211  0.95321069     0.07000
C57         C  0.34798482  0.51520360  0.94128245    -0.06800
Cl58       Cl  0.46656267  0.46111683  0.02418847    -0.49800
C59         C  0.36692550  0.56549636  0.12736445     0.42700
H60         H  0.43083895  0.31041994  0.95469904     0.07000
N61         N  0.39301231  0.57429724  0.94392086    -0.46500
C62         C  0.34094759  0.59635887  0.16334157    -0.02400
C63         C  0.10221065  0.83165350  0.15577425    -0.02400
C64         C  0.08870018  0.60500516  0.38749439    -0.02400
C65         C  0.33401420  0.83676226  0.38633078    -0.02400
C66         C  0.36131114  0.86420206  0.42290569     0.42600
N67         N  0.40842131  0.88173114  0.47715034     0.01500
C68         C  0.39747710  0.08890843  0.59129725    -0.06400
H69         H  0.42278999  0.10640150  0.43157813     0.07000
C70         C  0.58099741  0.02750314  0.44391469    -0.06700
Co71       Co  0.37886600  0.96716764  0.52615439     0.74200
N72         N  0.41240748  0.04811151  0.47267553    -0.25900
Co73       Co  0.46574676  0.04832609  0.52162674     0.74100
C74         C  0.56433102  0.06759127  0.41830886     0.42700
N75         N  0.54423455  0.90860722  0.47342878     0.01100
N76         N  0.51678347  0.04580567  0.47127299     0.01200
N77         N  0.34753067  0.03429957  0.60106167    -0.46800
H78         H  0.32255143  0.92964589  0.43650860     0.07000
N79         N  0.37821917  0.02027858  0.47649048     0.01500
N80         N  0.52058583  0.04866641  0.57234486     0.01200
C81         C  0.57275171  0.07164338  0.62141181     0.42800
N82         N  0.51321236  0.87752769  0.47903624    -0.25400
C83         C  0.34083073  0.89914557  0.60210781    -0.06300
N84         N  0.39845383  0.85063296  0.44654519    -0.46500
N85         N  0.53288734  0.08186857  0.59998440    -0.46700
C86         C  0.35438336  0.85672626  0.62530879     0.42600
N87         N  0.38108386  0.02065043  0.57449100     0.01500
N88         N  0.51301570  0.87934052  0.57486411    -0.25400
N89         N  0.37955055  0.91553025  0.47634102    -0.25900
N90         N  0.54605762  0.90877613  0.57516443     0.01100
H91         H  0.50456401  0.81491969  0.60455102     0.07000
H92         H  0.61426152  0.00779300  0.60659367     0.07000
N93         N  0.41204116  0.05211278  0.56954636    -0.25900
N94         N  0.54883631  0.01515085  0.47370092    -0.25600
N95         N  0.40728665  0.88167708  0.57820741     0.01500
C96         C  0.35511421  0.06935238  0.42500126     0.42900
C97         C  0.52579702  0.84154296  0.45522996    -0.06800
N98         N  0.55059055  0.01560980  0.57281338    -0.25600
H99         H  0.61236785  0.00986211  0.44034479     0.07000
N100        N  0.34340636  0.03326749  0.45107661    -0.46800
H101        H  0.51243287  0.80899750  0.46248813     0.07000
C102        C  0.56634378  0.85624439  0.62459260     0.42700
C103        C  0.35032313  0.90815270  0.44298962    -0.06300
Co104      Co  0.46044577  0.88044593  0.52764739     0.73800
N105        N  0.57509770  0.89562881  0.44294548    -0.46500
C106        C  0.35524904  0.07707670  0.61486983     0.43000
N107        N  0.39603156  0.84865935  0.60710799    -0.46500
Co108      Co  0.54770743  0.96196896  0.52380558     0.73900
C109        C  0.58362635  0.02673884  0.60228292    -0.06800
C110        C  0.40167438  0.07865249  0.44053243    -0.06400
N111        N  0.37560943  0.91287770  0.57549168    -0.25900
N112        N  0.52491184  0.07700376  0.43976626    -0.46700
H113        H  0.41433750  0.12058781  0.58956974     0.07000
C114        C  0.52381653  0.84521380  0.60240916    -0.06800
Cl115      Cl  0.46324609  0.96459606  0.52531585    -0.49800
C116        C  0.56477422  0.85368343  0.42695369     0.42700
H117        H  0.30870285  0.91591141  0.60416206     0.07000
N118        N  0.57850941  0.89565608  0.60359564    -0.46500
C119        C  0.59783317  0.30875283  0.90438691    -0.02400
C120        C  0.81235795  0.34492197  0.65545530    -0.02400
C121        C  0.60129918  0.10385763  0.65486550    -0.02400
C122        C  0.83641610  0.11142030  0.89866952    -0.02400
C123        C  0.32042840  0.58931907  0.89395011    -0.02400
C124        C  0.32528624  0.82325895  0.65663013    -0.02400
C125        C  0.09570134  0.60209707  0.64707267    -0.02400
C126        C  0.09747259  0.82653678  0.89578206    -0.02400
C127        C  0.59571658  0.82245843  0.39555103    -0.02400
C128        C  0.84272894  0.60401102  0.37018787    -0.02400
C129        C  0.60372088  0.61317984  0.13734352    -0.02400
C130        C  0.83278059  0.83794252  0.15383141    -0.02400
C131        C  0.60124135  0.58809935  0.88080311    -0.02400
C132        C  0.83568446  0.62390040  0.65490923    -0.02400
C133        C  0.59796980  0.82379139  0.65324265    -0.02400
C134        C  0.81885197  0.85230106  0.88809475    -0.02400
C135        C  0.07166352  0.07415552  0.11877168     0.42600
N136        N  0.02677757  0.01719711  0.10399418     0.01500
C137        C  0.02264734  0.88223818  0.91068847    -0.06400
H138        H  0.01581917  0.03740082  0.86705169     0.07000
C139        C  0.86462681  0.06372914  0.97306967    -0.06700
Co140      Co  0.05217790  0.96590979  0.01940461     0.74200
N141        N  0.01964449  0.01188949  0.93453210    -0.25900
Co142      Co  0.96375726  0.96751590  0.94039434     0.74100
C143        C  0.86962873  0.07887790  0.92597848     0.42700
N144        N  0.89135073  0.02463097  0.08369713     0.01100
N145        N  0.91482740  0.02188742  0.94220301     0.01200
N146        N  0.07725238  0.88227484  0.96036144    -0.46800
H147        H  0.11245618  0.05898919  0.05448596     0.07000
N148        N  0.05180814  0.01347434  0.96481647     0.01500
N149        N  0.90728296  0.92293880  0.94516711     0.01200
C150        C  0.85029553  0.88131231  0.92111841     0.42800
N151        N  0.92355341  0.01828442  0.11318887    -0.25400
C152        C  0.08564048  0.88695996  0.08318296    -0.06300
N153        N  0.03655607  0.04868812  0.13389564    -0.46500
N154        N  0.89269309  0.89589511  0.91308045    -0.46700
C155        C  0.07264084  0.86432603  0.12554455     0.42600
N156        N  0.04695153  0.91402980  0.96985700     0.01500
N157        N  0.91901192  0.92168145  0.10854286    -0.25400
N158        N  0.05514749  0.01750885  0.06969799    -0.25900
N159        N  0.88420334  0.92662726  0.08147946     0.01100
H160        H  0.93209181  0.87836996  0.16395138     0.07000
H161        H  0.80876854  0.90710732  0.98184235     0.07000
N162        N  0.01372334  0.91471019  0.94067836    -0.25900
N163        N  0.88990450  0.02691644  0.97859712    -0.25600
N164        N  0.02399446  0.91701721  0.10566465     0.01500
C165        C  0.07602083  0.05812460  0.91034527     0.42900
C166        C  0.91252782  0.04051695  0.15061893    -0.06800
N167        N  0.87666449  0.92877841  0.97665401    -0.25600
H168        H  0.84482668  0.07772398  0.99957695     0.07000
N169        N  0.08549630  0.04005418  0.95161198    -0.46800
H170        H  0.92831383  0.03231030  0.18175237     0.07000
C171        C  0.86218693  0.87516676  0.12986165     0.42700
C172        C  0.08434186  0.05160831  0.07617481    -0.06300
Co173      Co  0.97360008  0.96811857  0.10775335     0.73800
N174        N  0.85940210  0.05187791  0.09991317    -0.46500
C175        C  0.06426602  0.85792514  0.92408859     0.43000
N176        N  0.03511231  0.88771858  0.13809357    -0.46500
Co177      Co  0.88551194  0.97710497  0.02997411     0.73900
C178        C  0.83998344  0.90494166  0.96420954    -0.06800
C179        C  0.03282494  0.03691030  0.89892993    -0.06400
N180        N  0.05371771  0.91745491  0.07284216    -0.25900
N181        N  0.90327986  0.05164355  0.91018427    -0.46700
H182        H  0.00317083  0.87738249  0.88157834     0.07000
C183        C  0.90921989  0.88899194  0.13826796    -0.06800
Cl184      Cl  0.96873007  0.96956035  0.02431783    -0.49800
C185        C  0.87097985  0.06633779  0.14190411     0.42700
H186        H  0.11658827  0.88472989  0.06547225     0.07000
N187        N  0.85004122  0.90012967  0.09323027    -0.46500
C188        C  0.58918312  0.10070079  0.38398649    -0.02400
C189        C  0.83975666  0.09356127  0.17605725    -0.02400
C190        C  0.59269885  0.32809997  0.17053953    -0.02400
C191        C  0.82339961  0.34323320  0.39002712    -0.02400
C192        C  0.05860726  0.36680738  0.63442302     0.42600
N193        N  0.00507528  0.41500007  0.61193761     0.01500
C194        C  0.87269730  0.41552927  0.41374951    -0.06400
H195        H  0.02923753  0.42156184  0.37338866     0.07000
C196        C  0.04457604  0.58133390  0.46418956    -0.06700
Co197      Co  0.95708641  0.38685813  0.52489794     0.74200
N198        N  0.00497606  0.41801925  0.44037562    -0.25900
Co199      Co  0.95795289  0.47195455  0.44126090     0.74100
C200        C  0.06205710  0.57139017  0.41903280     0.42700
N201        N  0.01123824  0.54899568  0.57573520     0.01100
N202        N  0.00991630  0.52280428  0.43982209     0.01200
N203        N  0.87741788  0.35680399  0.46019400    -0.46800
H204        H  0.04562609  0.32575808  0.57035474     0.07000
N205        N  0.00739675  0.38655154  0.47178875     0.01500
N206        N  0.91078588  0.52507229  0.44002095     0.01200
C207        C  0.86848441  0.57718536  0.40873066     0.42800
N208        N  0.00727174  0.51945103  0.60881647    -0.25400
C209        C  0.87318437  0.35832501  0.58555967    -0.06300
N210        N  0.03393407  0.40425669  0.64513873    -0.46500
N211        N  0.88505164  0.53504143  0.40472872    -0.46700
C212        C  0.84955822  0.37223118  0.62727162     0.42600
N213        N  0.90715434  0.38829114  0.47158378     0.01500
N214        N  0.90968061  0.52617904  0.60897738    -0.25400
N215        N  0.00643087  0.38552979  0.57910402    -0.25900
N216        N  0.91395705  0.55882764  0.57885052     0.01100
H217        H  0.87437908  0.52328482  0.67233086     0.07000
H218        H  0.88825428  0.62582306  0.46508804     0.07000
N219        N  0.90628625  0.42243101  0.44304000    -0.25900
N220        N  0.01211655  0.55123961  0.47334106    -0.25600
N221        N  0.90356268  0.41964182  0.60777638     0.01500
C222        C  0.05174948  0.36196084  0.41721228     0.42900
C223        C  0.03745310  0.53014277  0.64040324    -0.06800
N224        N  0.91347076  0.55803625  0.46924785    -0.25600
H225        H  0.05134211  0.61021697  0.48438731     0.07000
N226        N  0.03458252  0.35300096  0.45903045    -0.46800
H227        H  0.04057909  0.51243202  0.67168556     0.07000
C228        C  0.86685563  0.58785834  0.62913497     0.42700
C229        C  0.03843844  0.35477589  0.59016754    -0.06300
Co230      Co  0.95589693  0.46979931  0.60958703     0.73800
N231        N  0.04380830  0.57819532  0.58299558    -0.46500
C232        C  0.85198488  0.37170515  0.42467871     0.43000
N233        N  0.87083294  0.41132180  0.63788647    -0.46500
Co234      Co  0.96228082  0.55410082  0.52438596     0.73900
C235        C  0.88880701  0.59252276  0.45167995    -0.06800
C236        C  0.03030731  0.40502267  0.40533598    -0.06400
N237        N  0.90567471  0.38850083  0.57650169    -0.25900
N238        N  0.03767503  0.53479047  0.40625739    -0.46700
H239        H  0.86637275  0.43657539  0.38488523     0.07000
C240        C  0.88129180  0.54126278  0.64150362    -0.06800
Cl241      Cl  0.95803019  0.47070100  0.52510842    -0.49800
C242        C  0.06362195  0.56877595  0.62289233     0.42700
H243        H  0.86787029  0.32910661  0.56575165     0.07000
N244        N  0.89230915  0.59593260  0.59172439    -0.46500
C245        C  0.61149450  0.35155045  0.21518180     0.01500
C246        C  0.61395837  0.39852579  0.22502852     0.04300
C247        C  0.64339526  0.41406497  0.25943977    -0.11800
C248        C  0.66839364  0.38396425  0.28627218     0.23600
C249        C  0.65475516  0.33986582  0.28576131    -0.12300
C250        C  0.62944447  0.32344355  0.25012640     0.05000
C251        C  0.71034714  0.39523595  0.31278415     0.27400
C252        C  0.75282476  0.39173671  0.29222812    -0.13000
C253        C  0.79273943  0.38852977  0.31736971     0.05500
C254        C  0.79111732  0.37822534  0.36389557    -0.09000
C255        C  0.74998178  0.39246704  0.38488040     0.06300
C256        C  0.71004174  0.40014289  0.35969670    -0.13400
Br257      Br  0.66549303  0.30360143  0.33802486    -0.05400
Br258      Br  0.57471326  0.44256180  0.19825774     0.00200
Br259      Br  0.84286729  0.41719702  0.28967787     0.00700
Br260      Br  0.65431267  0.41378013  0.38955782    -0.03800
Br261      Br  0.62040955  0.26124031  0.25340277     0.00700
Br262      Br  0.64068997  0.47464921  0.27815946    -0.03100
Br263      Br  0.75793849  0.38065671  0.22992506    -0.03900
Br264      Br  0.74844426  0.40460739  0.44775484     0.00100
C265        C  0.80503079  0.12084758  0.15337809     0.01500
C266        C  0.76738482  0.14228788  0.19109914     0.04300
C267        C  0.75159851  0.19354516  0.18641650    -0.11800
C268        C  0.76695272  0.22544984  0.14732038     0.23600
C269        C  0.80487943  0.20822652  0.11332479    -0.12300
C270        C  0.82368688  0.15684634  0.11357315     0.05000
C271        C  0.72765379  0.25837045  0.13299261     0.27400
C272        C  0.68528555  0.23976218  0.12568990    -0.13000
C273        C  0.64634495  0.25640120  0.14515981     0.05500
C274        C  0.63912689  0.30345487  0.15216340    -0.09000
C275        C  0.68157106  0.32747883  0.14546047     0.06300
C276        C  0.72485681  0.30520853  0.13912839    -0.13400
Br277      Br  0.82842677  0.24983193  0.07074254    -0.05400
Br278      Br  0.77297640  0.13563791  0.25497598     0.00200
Br279      Br  0.61552654  0.20328391  0.16077975     0.00700
Br280      Br  0.77765331  0.34004438  0.12498315    -0.03800
Br281      Br  0.87774735  0.14789343  0.07991731     0.00700
Br282      Br  0.71773278  0.22243329  0.23221304    -0.03100
Br283      Br  0.67038921  0.22003751  0.06772136    -0.03900
Br284      Br  0.68522771  0.39090736  0.14645728     0.00100
C285        C  0.85808554  0.14061294  0.19709985     0.01500
C286        C  0.89347879  0.14248074  0.22795932     0.04300
C287        C  0.89802160  0.17883184  0.25646317    -0.11800
C288        C  0.87106172  0.21717825  0.25392625     0.23600
C289        C  0.84199280  0.22202919  0.21579904    -0.12300
C290        C  0.83239601  0.18435120  0.18621076     0.05000
C291        C  0.87342768  0.25040548  0.29326680     0.27400
C292        C  0.86662343  0.23527247  0.33865083    -0.13000
C293        C  0.86431540  0.26663255  0.37374832     0.05500
C294        C  0.85877365  0.31298467  0.36354332    -0.09000
C295        C  0.88232306  0.32618728  0.32518237     0.06300
C296        C  0.88791685  0.29594095  0.28891622    -0.13400
Br297      Br  0.82090419  0.28123658  0.20536410    -0.05400
Br298      Br  0.94022379  0.09871754  0.23178437     0.00200
Br299      Br  0.86728519  0.24596632  0.43523894     0.00700
Br300      Br  0.91997997  0.31746287  0.23720291    -0.03800
Br301      Br  0.73962139  0.15284341  0.11225566     0.00700
Br302      Br  0.94636516  0.17771779  0.29779183    -0.03100
Br303      Br  0.85888071  0.17276400  0.35589120    -0.03900
Br304      Br  0.92767665  0.36979664  0.33584650     0.00100
C305        C  0.55139217  0.29645213  0.18810350     0.01500
C306        C  0.52705142  0.30729847  0.22716265     0.04300
C307        C  0.51413125  0.27382538  0.25818286    -0.11800
C308        C  0.50977337  0.22762725  0.24564404     0.23600
C309        C  0.51572221  0.22136507  0.19772970    -0.12300
C310        C  0.53374542  0.25684522  0.16905649     0.05000
C311        C  0.51526219  0.19008743  0.28334504     0.27400
C312        C  0.55659124  0.19161138  0.30289900    -0.13000
C313        C  0.55977222  0.17678072  0.34809232     0.05500
C314        C  0.55322157  0.13104454  0.35573181    -0.09000
C315        C  0.51605159  0.11608152  0.32859545     0.06300
C316        C  0.49525411  0.14612028  0.29437538    -0.13400
Br317      Br  0.51074808  0.16357397  0.17015160    -0.05400
Br318      Br  0.50498640  0.36678145  0.23630129     0.00200
Br319      Br  0.52205177  0.21087828  0.38689340     0.00700
Br320      Br  0.45646278  0.11736312  0.25439550    -0.03800
Br321      Br  0.53371599  0.25072810  0.10452975     0.00700
Br322      Br  0.52250923  0.29497278  0.31799626    -0.03100
Br323      Br  0.58358730  0.15777310  0.25500831    -0.03900
Br324      Br  0.49510933  0.05574361  0.33578660     0.00100
C325        C  0.62225741  0.12889320  0.41462904     0.01500
C326        C  0.66877883  0.11844591  0.42043498     0.04300
C327        C  0.70071708  0.15304959  0.42622072    -0.11800
C328        C  0.68680564  0.19872838  0.42600815     0.23600
C329        C  0.63980891  0.20656711  0.43136295    -0.12300
C330        C  0.60969344  0.17025746  0.43289818     0.05000
C331        C  0.72127142  0.23609955  0.41982807     0.27400
C332        C  0.73226770  0.26790302  0.45233082    -0.13000
C333        C  0.76968395  0.29672008  0.44729213     0.05500
C334        C  0.78662269  0.30690561  0.40399210    -0.09000
C335        C  0.76825818  0.27949060  0.36945989     0.06300
C336        C  0.74535226  0.24024991  0.38004099    -0.13400
Br337      Br  0.61236480  0.26491617  0.43056159    -0.05400
Br338      Br  0.68927128  0.05773728  0.42668558     0.00200
Br339      Br  0.79950883  0.31270127  0.50058872     0.00700
Br340      Br  0.75497250  0.19167507  0.34194937    -0.03800
Br341      Br  0.56167521  0.17162888  0.47650762     0.00700
Br342      Br  0.76312814  0.13724372  0.43690221    -0.03100
Br343      Br  0.69197006  0.28055520  0.49785743    -0.03900
Br344      Br  0.77476568  0.28972863  0.30636995     0.00100
C345        C  0.81046177  0.05717257  0.20439479     0.01500
C346        C  0.81518138  0.04676090  0.25110953     0.04300
C347        C  0.77644423  0.04047759  0.27892541    -0.11800
C348        C  0.73349919  0.03446075  0.25993983     0.23600
C349        C  0.73237356  0.02785141  0.21317149    -0.12300
C350        C  0.76981460  0.03933081  0.18559635     0.05000
C351        C  0.69069749  0.04583082  0.28606882     0.27400
C352        C  0.66950661  0.01873158  0.31866411    -0.13000
C353        C  0.62951349  0.03280226  0.34055396     0.05500
C354        C  0.62065970  0.07915887  0.34612119    -0.09000
C355        C  0.64667176  0.10681166  0.31616532     0.06300
C356        C  0.67184765  0.08807844  0.28068832    -0.13400
Br357      Br  0.67735160  0.00852795  0.18597712    -0.05400
Br358      Br  0.87148140  0.03385285  0.27820483     0.00200
Br359      Br  0.58688518  0.98735966  0.35315683     0.00700
Br360      Br  0.67265958  0.11520785  0.22208458    -0.03800
Br361      Br  0.76286519  0.03186047  0.12171097     0.00700
Br362      Br  0.78198268  0.05067423  0.34240336    -0.03100
Br363      Br  0.69921426  0.96965579  0.34389391    -0.03900
Br364      Br  0.65719318  0.16902554  0.32481491     0.00100
C365        C  0.62879792  0.84942857  0.68826889     0.01500
C366        C  0.61043912  0.88110984  0.71932862     0.04300
C367        C  0.63416343  0.89387803  0.75874349    -0.11800
C368        C  0.67957384  0.88103773  0.76545797     0.23600
C369        C  0.69965561  0.85446416  0.73151995    -0.12300
C370        C  0.67333594  0.83360284  0.69930405     0.05000
C371        C  0.70849565  0.89686143  0.80436254     0.27400
C372        C  0.74932834  0.91691508  0.79368880    -0.13000
C373        C  0.78791149  0.90610307  0.81987071     0.05500
C374        C  0.78306214  0.88619872  0.86428918    -0.09000
C375        C  0.73862870  0.89122058  0.88063257     0.06300
C376        C  0.70233235  0.88621266  0.85050635    -0.13400
Br377      Br  0.76389408  0.84272261  0.72673755    -0.05400
Br378      Br  0.55113156  0.90600463  0.71208559     0.00200
Br379      Br  0.84324615  0.91545641  0.78895173     0.00700
Br380      Br  0.64815966  0.86240543  0.87505618    -0.03800
Br381      Br  0.69613382  0.77383855  0.68743793     0.00700
Br382      Br  0.60283374  0.92959994  0.80244674    -0.03100
Br383      Br  0.75084743  0.95029684  0.73774907    -0.03900
Br384      Br  0.73002546  0.94235537  0.91803663     0.00100
C385        C  0.80349360  0.65399946  0.62373193     0.01500
C386        C  0.77236828  0.68318886  0.64387132     0.04300
C387        C  0.72954438  0.68349634  0.62374661    -0.11800
C388        C  0.73036843  0.70496943  0.58237905     0.23600
C389        C  0.76944963  0.69113854  0.55692346    -0.12300
C390        C  0.79952794  0.65796021  0.57576929     0.05000
C391        C  0.69448465  0.74146253  0.57515297     0.27400
C392        C  0.64834364  0.72957796  0.57761489    -0.13000
C393        C  0.61577766  0.75778057  0.59781568     0.05500
C394        C  0.62802586  0.79958445  0.61625675    -0.09000
C395        C  0.67015369  0.81686216  0.60039061     0.06300
C396        C  0.70370193  0.78747213  0.58228964    -0.13400
Br397      Br  0.79288637  0.71954698  0.50589684    -0.05400
Br398      Br  0.79360161  0.74282330  0.65216370     0.00200
Br399      Br  0.55393250  0.73856149  0.59685085     0.00700
Br400      Br  0.76212504  0.81134940  0.56914672    -0.03800
Br401      Br  0.82360726  0.61755483  0.53419002     0.00700
Br402      Br  0.70143219  0.62549334  0.61951294    -0.03100
Br403      Br  0.62723618  0.67521900  0.55177469    -0.03900
Br404      Br  0.68354475  0.88018243  0.60353416     0.00100
C405        C  0.86899378  0.65535771  0.68139984     0.01500
C406        C  0.88296513  0.69827417  0.66573642     0.04300
C407        C  0.88952632  0.73389817  0.69661894    -0.11800
C408        C  0.88518761  0.72597991  0.74345928     0.23600
C409        C  0.88334988  0.68063067  0.75777446    -0.12300
C410        C  0.88047073  0.64571411  0.72648303     0.05000
C411        C  0.87211701  0.76294379  0.77619574     0.27400
C412        C  0.90138387  0.79518604  0.79315399    -0.13000
C413        C  0.88728308  0.82612306  0.82724524     0.05500
C414        C  0.84171164  0.82562407  0.84586865    -0.09000
C415        C  0.81247940  0.79662306  0.82177923     0.06300
C416        C  0.82758949  0.76634377  0.78941602    -0.13400
Br417      Br  0.87512994  0.66535591  0.81993758    -0.05400
Br418      Br  0.89289029  0.70915136  0.60242955     0.00200
Br419      Br  0.93026461  0.87315578  0.83377996     0.00700
Br420      Br  0.78511064  0.73129162  0.75930187    -0.03800
Br421      Br  0.89121094  0.58498084  0.74616506     0.00700
Br422      Br  0.89511782  0.79420569  0.67354009    -0.03100
Br423      Br  0.95925428  0.80060045  0.76443880    -0.03900
Br424      Br  0.74900550  0.79600638  0.83028192     0.00100
C425        C  0.56535998  0.61523549  0.85124249     0.01500
C426        C  0.54764768  0.59936163  0.81081127     0.04300
C427        C  0.54287511  0.62867756  0.77333563    -0.11800
C428        C  0.54342358  0.67605055  0.77909470     0.23600
C429        C  0.54428401  0.69111104  0.82453734    -0.12300
C430        C  0.55375241  0.66068088  0.86028023     0.05000
C431        C  0.54699522  0.70893297  0.73925403     0.27400
C432        C  0.58820858  0.71376505  0.71753761    -0.13000
C433        C  0.60227093  0.75706009  0.70846919     0.05500
C434        C  0.57382922  0.78659015  0.68486472    -0.09000
C435        C  0.52805834  0.78175792  0.70042303     0.06300
C436        C  0.51676030  0.74505993  0.73052272    -0.13400
Br437      Br  0.53809981  0.75339097  0.84038018    -0.05400
Br438      Br  0.50776664  0.54892583  0.81517368     0.00200
Br439      Br  0.61634425  0.78152253  0.76553994     0.00700
Br440      Br  0.46328485  0.74715958  0.76329038    -0.03800
Br441      Br  0.55264478  0.68265818  0.92120464     0.00700
Br442      Br  0.53216110  0.60184859  0.71588975    -0.03100
Br443      Br  0.61420330  0.66747612  0.68315313    -0.03900
Br444      Br  0.48207931  0.82613394  0.69191680     0.00100
C445        C  0.80162437  0.60224088  0.69127377     0.01500
C446        C  0.78526446  0.55786516  0.69005013     0.04300
C447        C  0.76351829  0.53947941  0.72858942    -0.11800
C448        C  0.75477647  0.56457948  0.76739892     0.23600
C449        C  0.77489847  0.60643970  0.76939660    -0.12300
C450        C  0.78374082  0.62770769  0.72825769     0.05000
C451        C  0.71411544  0.55570012  0.79701952     0.27400
C452        C  0.67047288  0.55455548  0.77860721    -0.13000
C453        C  0.63246308  0.54901794  0.80640017     0.05500
C454        C  0.63497850  0.55585699  0.85357038    -0.09000
C455        C  0.67878099  0.54702941  0.87144202     0.06300
C456        C  0.71788611  0.54897126  0.84379835    -0.13400
Br457      Br  0.76525943  0.64203200  0.82204608    -0.05400
Br458      Br  0.77868660  0.52733279  0.63384227     0.00200
Br459      Br  0.59554195  0.50215989  0.78351457     0.00700
Br460      Br  0.77621448  0.53599176  0.86874979    -0.03800
Br461      Br  0.72429578  0.65333789  0.72237107     0.00700
Br462      Br  0.74666924  0.47972226  0.73027710    -0.03100
Br463      Br  0.66007363  0.55797339  0.71480259    -0.03900
Br464      Br  0.68552672  0.52538478  0.93190668     0.00100
C465        C  0.63555408  0.62573955  0.89788039     0.01500
C466        C  0.65386956  0.65725338  0.86631834     0.04300
C467        C  0.67784624  0.69445405  0.88049872    -0.11800
C468        C  0.70383244  0.69339472  0.91914927     0.23600
C469        C  0.69244092  0.65760285  0.94909489    -0.12300
C470        C  0.65382421  0.62995758  0.94183317     0.05000
C471        C  0.73783027  0.73197274  0.92695920     0.27400
C472        C  0.78488596  0.72825830  0.91975234    -0.13000
C473        C  0.81314995  0.76720923  0.91798820     0.05500
C474        C  0.79545117  0.81194921  0.91848085    -0.09000
C475        C  0.75174503  0.81318685  0.93893217     0.06300
C476        C  0.72293556  0.77499195  0.93974063    -0.13400
Br477      Br  0.73233010  0.63804856  0.99415446    -0.05400
Br478      Br  0.64711183  0.65558997  0.80268410     0.00200
Br479      Br  0.87690886  0.75922959  0.92109144     0.00700
Br480      Br  0.66274304  0.78121228  0.96135948    -0.03800
Br481      Br  0.62704825  0.60177343  0.99351895     0.00700
Br482      Br  0.65765306  0.74928686  0.85697586    -0.03100
Br483      Br  0.81225340  0.67000265  0.91896925    -0.03900
Br484      Br  0.73859123  0.85535013  0.98515627     0.00100
C485        C  0.63179778  0.64673010  0.10467601     0.01500
C486        C  0.61637710  0.68855488  0.08725021     0.04300
C487        C  0.64600042  0.72601457  0.08148300    -0.11800
C488        C  0.69319482  0.72222280  0.09064107     0.23600
C489        C  0.70858054  0.67792621  0.09890433    -0.12300
C490        C  0.67898924  0.64104881  0.09943584     0.05000
C491        C  0.72628895  0.76231985  0.09217579     0.27400
C492        C  0.76975420  0.76283692  0.07070968    -0.13000
C493        C  0.80331179  0.79438982  0.08225496     0.05500
C494        C  0.79589888  0.82234715  0.11855840    -0.09000
C495        C  0.74982491  0.83442759  0.12256449     0.06300
C496        C  0.71646050  0.80187503  0.11638858    -0.13400
Br497      Br  0.76869874  0.66543752  0.11755937    -0.05400
Br498      Br  0.56141991  0.68982943  0.05400902     0.00200
Br499      Br  0.84799235  0.81239761  0.03838733     0.00700
Br500      Br  0.66293273  0.81062274  0.15040773    -0.03800
Br501      Br  0.70412925  0.58306511  0.08700884     0.00700
Br502      Br  0.61919436  0.78104991  0.05988009    -0.03100
Br503      Br  0.78689549  0.72301731  0.02531931    -0.03900
Br504      Br  0.73196623  0.89593904  0.13031934     0.00100
C505        C  0.64204031  0.59515824  0.17233249     0.01500
C506        C  0.66012917  0.62761815  0.20290815     0.04300
C507        C  0.68619179  0.61484801  0.23994644    -0.11800
C508        C  0.70818616  0.57405404  0.24181567     0.23600
C509        C  0.69714839  0.54257012  0.20932401    -0.12300
C510        C  0.66228015  0.55096353  0.17745038     0.05000
C511        C  0.74753789  0.56806054  0.27326197     0.27400
C512        C  0.79186750  0.57218025  0.25692592    -0.13000
C513        C  0.82884497  0.57045699  0.28688773     0.05500
C514        C  0.82111478  0.57072724  0.33422840    -0.09000
C515        C  0.78045806  0.55006852  0.34591783     0.06300
C516        C  0.74238755  0.55610910  0.31892941    -0.13400
Br517      Br  0.73155904  0.48766136  0.20909150    -0.05400
Br518      Br  0.65345350  0.69171290  0.19598425     0.00200
Br519      Br  0.87333303  0.52963460  0.26478517     0.00700
Br520      Br  0.68516797  0.54839779  0.34720555    -0.03800
Br521      Br  0.65273076  0.50086946  0.13977590     0.00700
Br522      Br  0.68923607  0.65217773  0.29061468    -0.03100
Br523      Br  0.80225882  0.57291292  0.19302123    -0.03900
Br524      Br  0.78575418  0.49295460  0.37352312     0.00100
C525        C  0.86709732  0.80233451  0.17580310     0.01500
C526        C  0.87182294  0.75634596  0.16393646     0.04300
C527        C  0.88018351  0.72329977  0.19749986    -0.11800
C528        C  0.90089829  0.73387863  0.23852642     0.23600
C529        C  0.91319079  0.77971721  0.24134502    -0.12300
C530        C  0.89105142  0.81317944  0.21593096     0.05000
C531        C  0.90257895  0.70098735  0.27939543     0.27400
C532        C  0.88632616  0.71580557  0.32198854    -0.13000
C533        C  0.87825597  0.68475084  0.35749471     0.05500
C534        C  0.87808539  0.63804078  0.34913895    -0.09000
C535        C  0.90807286  0.62523044  0.31563059     0.06300
C536        C  0.91687800  0.65437981  0.27882638    -0.13400
Br537      Br  0.96249946  0.80043962  0.27550027    -0.05400
Br538      Br  0.88678295  0.73692787  0.10490407     0.00200
Br539      Br  0.86914607  0.70662922  0.41725625     0.00700
Br540      Br  0.94560546  0.62303113  0.23092602    -0.03800
Br541      Br  0.89304393  0.87210943  0.24291205     0.00700
Br542      Br  0.85838596  0.66543139  0.18564037    -0.03100
Br543      Br  0.86481603  0.77611043  0.33160073    -0.03900
Br544      Br  0.94566754  0.57319093  0.32704575     0.00100
C545        C  0.56783080  0.63803379  0.17012327     0.01500
C546        C  0.54594852  0.67913502  0.16040727     0.04300
C547        C  0.54461370  0.71391777  0.19204793    -0.11800
C548        C  0.55075690  0.70463148  0.23889879     0.23600
C549        C  0.55866665  0.65854679  0.25001575    -0.12300
C550        C  0.56310784  0.62544644  0.21609722     0.05000
C551        C  0.55128390  0.74112156  0.27532015     0.27400
C552        C  0.58586122  0.77212163  0.27646166    -0.13000
C553        C  0.60278498  0.78304363  0.31848557     0.05500
C554        C  0.57361070  0.79537816  0.35417888    -0.09000
C555        C  0.53102189  0.77352703  0.35009931     0.06300
C556        C  0.52418328  0.74178094  0.31484992    -0.13400
Br557      Br  0.57291163  0.63980260  0.31016659    -0.05400
Br558      Br  0.48617734  0.67475067  0.13740689     0.00200
Br559      Br  0.64256373  0.73751368  0.33384759     0.00700
Br560      Br  0.48179457  0.69729771  0.32530711    -0.03800
Br561      Br  0.56468042  0.56296907  0.23301650     0.00700
Br562      Br  0.52516990  0.77009800  0.16617476    -0.03100
Br563      Br  0.58741971  0.81849337  0.23318292    -0.03900
Br564      Br  0.48075233  0.78218186  0.38890540     0.00100
C565        C  0.80219563  0.85039114  0.19599046     0.01500
C566        C  0.79699495  0.89349504  0.21540995     0.04300
C567        C  0.77106926  0.89885545  0.25519271    -0.11800
C568        C  0.73830019  0.86692595  0.26841365     0.23600
C569        C  0.74010718  0.82637132  0.24589700    -0.12300
C570        C  0.77441425  0.81596844  0.21542012     0.05000
C571        C  0.70295771  0.87223735  0.30569193     0.27400
C572        C  0.71277216  0.86259457  0.35091359    -0.13000
C573        C  0.67779373  0.86054681  0.38354585     0.05500
C574        C  0.63219370  0.85496863  0.37061771    -0.09000
C575        C  0.62254895  0.87589874  0.32842361     0.06300
C576        C  0.65763316  0.88368016  0.29618646    -0.13400
Br577      Br  0.69416158  0.78417864  0.25478651    -0.05400
Br578      Br  0.82527093  0.94607700  0.19076769     0.00200
Br579      Br  0.68802217  0.90036300  0.43263287     0.00700
Br580      Br  0.64487622  0.91331341  0.24045089    -0.03800
Br581      Br  0.77621102  0.75376823  0.19786390     0.00700
Br582      Br  0.79347722  0.94106101  0.29617924    -0.03100
Br583      Br  0.77441358  0.86359457  0.36996811    -0.03900
Br584      Br  0.56087689  0.89020455  0.31359867     0.00100
C585        C  0.61840039  0.78520232  0.42706942     0.01500
C586        C  0.65670345  0.79519045  0.45033293     0.04300
C587        C  0.69455665  0.76696421  0.44769623    -0.11800
C588        C  0.68995670  0.72148998  0.43373749     0.23600
C589        C  0.64484194  0.70658404  0.43005716    -0.12300
C590        C  0.60894980  0.73841255  0.42875624     0.05000
C591        C  0.72937344  0.69105770  0.41986495     0.27400
C592        C  0.75312997  0.69969127  0.37977534    -0.13000
C593        C  0.78266306  0.66790339  0.36107985     0.05500
C594        C  0.80059489  0.63205693  0.38768277    -0.09000
C595        C  0.77457800  0.62089878  0.42648563     0.06300
C596        C  0.73945128  0.64963127  0.44167802    -0.13400
Br597      Br  0.63121872  0.64578037  0.41417993    -0.05400
Br598      Br  0.64610718  0.83115662  0.50130701     0.00200
Br599      Br  0.79476974  0.67389711  0.29721051     0.00700
Br600      Br  0.70667528  0.63091254  0.49371218    -0.03800
Br601      Br  0.55031516  0.71687187  0.44286303     0.00700
Br602      Br  0.74945912  0.79805958  0.45447727    -0.03100
Br603      Br  0.74866096  0.75592931  0.34974276    -0.03900
Br604      Br  0.77816905  0.56238930  0.45464732     0.00100
C605        C  0.06531084  0.62898307  0.68301064     0.01500
C606        C  0.04514332  0.67043832  0.67391222     0.04300
C607        C  0.04706398  0.70490667  0.70600773    -0.11800
C608        C  0.05190954  0.69438790  0.75226888     0.23600
C609        C  0.05352012  0.64811654  0.76344709    -0.12300
C610        C  0.05985205  0.61554992  0.72929058     0.05000
C611        C  0.05831416  0.73028305  0.78793198     0.27400
C612        C  0.09950174  0.75186926  0.79112339    -0.13000
C613        C  0.11211545  0.77323128  0.82995585     0.05500
C614        C  0.07930139  0.79222758  0.85950401    -0.09000
C615        C  0.03537631  0.77373424  0.85529664     0.06300
C616        C  0.02719906  0.73970085  0.82278933    -0.13400
Br617      Br  0.05154440  0.62852346  0.82548348    -0.05400
Br618      Br  0.98484398  0.66095631  0.65561824     0.00200
Br619      Br  0.17624256  0.77197951  0.84063692     0.00700
Br620      Br  0.97347720  0.70622231  0.82663059    -0.03800
Br621      Br  0.06127432  0.55382963  0.74815907     0.00700
Br622      Br  0.03565330  0.76464273  0.68514133    -0.03100
Br623      Br  0.13818085  0.76145657  0.74202917    -0.03900
Br624      Br  0.98732693  0.78761729  0.89615279     0.00100
C625        C  0.29043615  0.79518803  0.62519458     0.01500
C626        C  0.24717317  0.78565857  0.64129653     0.04300
C627        C  0.21176601  0.77415829  0.61396460    -0.11800
C628        C  0.22017230  0.73898279  0.58438651     0.23600
C629        C  0.26621282  0.73812998  0.56871456    -0.12300
C630        C  0.30008259  0.76804935  0.58657173     0.05000
C631        C  0.18610996  0.69997846  0.58153861     0.27400
C632        C  0.19973200  0.65582988  0.59286396    -0.13000
C633        C  0.16809149  0.62143380  0.59831910     0.05500
C634        C  0.12217385  0.63085648  0.60880446    -0.09000
C635        C  0.10720227  0.67155855  0.58878718     0.06300
C636        C  0.13845937  0.70524219  0.57452012    -0.13400
Br637      Br  0.28403533  0.69772294  0.52310757    -0.05400
Br638      Br  0.25106040  0.73725909  0.68185569     0.00200
Br639      Br  0.18875998  0.56334432  0.58160198     0.00700
Br640      Br  0.11240389  0.75656361  0.54487233    -0.03800
Br641      Br  0.35850183  0.76684347  0.55900810     0.00700
Br642      Br  0.15398834  0.79003574  0.63671733    -0.03100
Br643      Br  0.25889528  0.64081320  0.61397807    -0.03900
Br644      Br  0.04646133  0.67678948  0.56798432     0.00100
C645        C  0.29630224  0.84977137  0.69534185     0.01500
C646        C  0.25916183  0.82862352  0.71646941     0.04300
C647        C  0.22126564  0.85571543  0.71960949    -0.11800
C648        C  0.22675008  0.88452826  0.75510528     0.23600
C649        C  0.26933736  0.90777227  0.75063596    -0.12300
C650        C  0.30138345  0.89394359  0.71541515     0.05000
C651        C  0.19253160  0.88138065  0.79461193     0.27400
C652        C  0.14541277  0.87645231  0.78607543    -0.13000
C653        C  0.11384997  0.87138473  0.82132242     0.05500
C654        C  0.12741580  0.86055601  0.86587578    -0.09000
C655        C  0.17201305  0.87352165  0.87559928     0.06300
C656        C  0.20475711  0.87970550  0.84093805    -0.13400
Br657      Br  0.28456040  0.95480266  0.78966907    -0.05400
Br658      Br  0.26801922  0.79343454  0.77059887     0.00200
Br659      Br  0.05110863  0.87785248  0.80648855     0.00700
Br660      Br  0.26602449  0.87369979  0.85991783    -0.03800
Br661      Br  0.34853157  0.93464910  0.69881870     0.00700
Br662      Br  0.20670526  0.88764211  0.66393191    -0.03100
Br663      Br  0.11978389  0.87374387  0.72643764    -0.03900
Br664      Br  0.18397462  0.90162534  0.93180146     0.00100
C665        C  0.13467922  0.58264773  0.67780477     0.01500
C666        C  0.15645963  0.61366497  0.70515585     0.04300
C667        C  0.17336348  0.60091356  0.74645113    -0.11800
C668        C  0.19165694  0.55797689  0.75302051     0.23600
C669        C  0.18161168  0.52688903  0.71824631    -0.12300
C670        C  0.14980627  0.53789517  0.68355525     0.05000
C671        C  0.22485992  0.54957967  0.79176573     0.27400
C672        C  0.27166785  0.54403905  0.78408379    -0.13000
C673        C  0.30270797  0.54336901  0.82047235     0.05500
C674        C  0.28899517  0.55549075  0.86500302    -0.09000
C675        C  0.24275048  0.54641665  0.87301893     0.06300
C676        C  0.21100265  0.54907001  0.83743086    -0.13400
Br677      Br  0.21144055  0.47061050  0.71574131    -0.05400
Br678      Br  0.15937457  0.67518041  0.69004965     0.00200
Br679      Br  0.36495097  0.53063407  0.80763812     0.00700
Br680      Br  0.14833980  0.54758793  0.85329980    -0.03800
Br681      Br  0.13360017  0.49405457  0.64058962     0.00700
Br682      Br  0.15865081  0.64177946  0.79253915    -0.03100
Br683      Br  0.29526491  0.54408416  0.72366171    -0.03900
Br684      Br  0.23026447  0.49452661  0.90940195     0.00100
C685        C  0.12344823  0.79216600  0.92840089     0.01500
C686        C  0.11455530  0.74534744  0.93030663     0.04300
C687        C  0.14992156  0.71401620  0.93146754    -0.11800
C688        C  0.19370697  0.72715082  0.94424343     0.23600
C689        C  0.19785727  0.77326811  0.95695923    -0.12300
C690        C  0.16102929  0.80294981  0.95296838     0.05000
C691        C  0.23194937  0.69253301  0.94566880     0.27400
C692        C  0.22647333  0.64846140  0.96413644    -0.13000
C693        C  0.25795823  0.61344826  0.95460174     0.05500
C694        C  0.29714864  0.62266297  0.92918108    -0.09000
C695        C  0.30915820  0.66898110  0.92942972     0.06300
C696        C  0.27549544  0.70247605  0.92957531    -0.13400
Br697      Br  0.24886018  0.80019212  0.98524436    -0.05400
Br698      Br  0.05764546  0.72382288  0.95080792     0.00200
Br699      Br  0.25569379  0.55948891  0.98991385     0.00700
Br700      Br  0.28693471  0.75574036  0.89529156    -0.03800
Br701      Br  0.14280372  0.82487223  0.00861649     0.00700
Br702      Br  0.13627972  0.65580401  0.90854128    -0.03100
Br703      Br  0.18020835  0.63750450  0.00783028    -0.03900
Br704      Br  0.37074770  0.68751096  0.93042024     0.00100
C705        C  0.33674204  0.62245161  0.85470296     0.01500
C706        C  0.38096965  0.62922208  0.83706970     0.04300
C707        C  0.38726886  0.65257138  0.79583669    -0.11800
C708        C  0.35177394  0.67337551  0.77343881     0.23600
C709        C  0.30935592  0.66399311  0.78834326    -0.12300
C710        C  0.30202237  0.64455827  0.82990446     0.05000
C711        C  0.35786611  0.71207058  0.74150645     0.27400
C712        C  0.36334828  0.75531022  0.75878348    -0.13000
C713        C  0.36564820  0.79299626  0.72973058     0.05500
C714        C  0.35709708  0.78864962  0.68304630    -0.09000
C715        C  0.36722755  0.74508129  0.66690428     0.06300
C716        C  0.36005614  0.70714670  0.69473082    -0.13400
Br717      Br  0.26504940  0.65556310  0.74461002    -0.05400
Br718      Br  0.43473045  0.61306369  0.86735136     0.00200
Br719      Br  0.38765222  0.84756505  0.75457105     0.00700
Br720      Br  0.36275751  0.64853722  0.66901346    -0.03800
Br721      Br  0.24214938  0.65104817  0.84990754     0.00700
Br722      Br  0.43818655  0.64041154  0.76033889    -0.03100
Br723      Br  0.37057919  0.76308549  0.82256658    -0.03900
Br724      Br  0.42475300  0.73922804  0.63806559     0.00100
C725        C  0.64520620  0.07966440  0.67832138     0.01500
C726        C  0.64320191  0.05057719  0.71588322     0.04300
C727        C  0.67752656  0.05002541  0.74923198    -0.11800
C728        C  0.71996227  0.06999016  0.74166972     0.23600
C729        C  0.72724684  0.08429240  0.69681634    -0.12300
C730        C  0.69104431  0.08668359  0.66511929     0.05000
C731        C  0.75241663  0.07776118  0.78183046     0.27400
C732        C  0.73704603  0.10584842  0.81613883    -0.13000
C733        C  0.75486746  0.10402841  0.86005283     0.05500
C734        C  0.79824711  0.08587937  0.86913046    -0.09000
C735        C  0.80949291  0.05233786  0.83788974     0.06300
C736        C  0.79089689  0.05140971  0.79351464    -0.13400
Br737      Br  0.78719995  0.09147363  0.67548368    -0.05400
Br738      Br  0.62041108  0.99336880  0.70231874     0.00200
Br739      Br  0.70548075  0.08327831  0.89620480     0.00700
Br740      Br  0.82697448  0.02247304  0.74913598    -0.03800
Br741      Br  0.70756532  0.07248489  0.60476776     0.00700
Br742      Br  0.66808050  0.01799213  0.80426866    -0.03100
Br743      Br  0.68277236  0.13848005  0.80690997    -0.03900
Br744      Br  0.83506303  0.99860967  0.86186248     0.00100
C745        C  0.62207610  0.14779270  0.63125362     0.01500
C746        C  0.63163588  0.18631966  0.65748784     0.04300
C747        C  0.64566564  0.22674931  0.63848909    -0.11800
C748        C  0.67287134  0.22636278  0.60063447     0.23600
C749        C  0.66892960  0.18686916  0.57436394    -0.12300
C750        C  0.63841673  0.15151038  0.58619448     0.05000
C751        C  0.71209074  0.25979798  0.59779869     0.27400
C752        C  0.70715019  0.30781037  0.59395847    -0.13000
C753        C  0.74497424  0.33613694  0.59959534     0.05500
C754        C  0.78438051  0.31911610  0.61849128    -0.09000
C755        C  0.79299678  0.27333403  0.60795809     0.06300
C756        C  0.75673790  0.24374204  0.60276089    -0.13400
Br757      Br  0.71025399  0.17576615  0.52741266    -0.05400
Br758      Br  0.64222944  0.18409405  0.71965786     0.00200
Br759      Br  0.75217558  0.38912777  0.56263524     0.00700
Br760      Br  0.76876647  0.18243642  0.61714531    -0.03800
Br761      Br  0.62596431  0.10738745  0.54117748     0.00700
Br762      Br  0.62988548  0.28051690  0.66813944    -0.03100
Br763      Br  0.65101578  0.33722898  0.57880465    -0.03900
Br764      Br  0.85332336  0.24863183  0.60546009     0.00100
C765        C  0.86406707  0.14155542  0.86258547     0.01500
C766        C  0.87486684  0.12576994  0.81870240     0.04300
C767        C  0.86945357  0.15449446  0.78062004    -0.11800
C768        C  0.85777171  0.19990105  0.78625832     0.23600
C769        C  0.85528611  0.21655205  0.82995166    -0.12300
C770        C  0.86859413  0.18897047  0.86557489     0.05000
C771        C  0.85082186  0.23128207  0.74726241     0.27400
C772        C  0.88325380  0.26234962  0.73338416    -0.13000
C773        C  0.87386581  0.29699154  0.70183018     0.05500
C774        C  0.82882183  0.30520451  0.68796813    -0.09000
C775        C  0.79624324  0.27355420  0.70529914     0.06300
C776        C  0.80860442  0.23480639  0.72914897    -0.13400
Br777      Br  0.85249663  0.28027178  0.84002130    -0.05400
Br778      Br  0.90784360  0.07072508  0.81059590     0.00200
Br779      Br  0.92410872  0.33121603  0.68056689     0.00700
Br780      Br  0.76647700  0.18743357  0.74113222    -0.03800
Br781      Br  0.92689229  0.21198885  0.88069669     0.00700
Br782      Br  0.88063352  0.13317074  0.72091665    -0.03100
Br783      Br  0.93988659  0.25808222  0.76035329    -0.03900
Br784      Br  0.73295024  0.27983220  0.69954234     0.00100
C785        C  0.56618359  0.12278539  0.69203708     0.01500
C786        C  0.56447340  0.10637981  0.73643279     0.04300
C787        C  0.55992921  0.13566593  0.77347124    -0.11800
C788        C  0.54143831  0.18014310  0.76835962     0.23600
C789        C  0.52465548  0.18842684  0.72376317    -0.12300
C790        C  0.53930863  0.16230138  0.68606185     0.05000
C791        C  0.53886168  0.21616432  0.80703299     0.27400
C792        C  0.53390411  0.20604737  0.85432311    -0.13000
C793        C  0.54717082  0.23762614  0.88818867     0.05500
C794        C  0.56256178  0.28065538  0.87621433    -0.09000
C795        C  0.54829322  0.29462455  0.83336096     0.06300
C796        C  0.54246381  0.26351500  0.79834495    -0.13400
Br797      Br  0.47338852  0.22710170  0.71419301    -0.05400
Br798      Br  0.53661531  0.04910332  0.74468404     0.00200
Br799      Br  0.53668684  0.22551833  0.95164538     0.00700
Br800      Br  0.55136653  0.29068414  0.74083825    -0.03800
Br801      Br  0.52167108  0.18157478  0.62668384     0.00700
Br802      Br  0.57973052  0.10834453  0.82826826    -0.03100
Br803      Br  0.49930006  0.15589944  0.87581895    -0.03900
Br804      Br  0.52616990  0.35427429  0.82475891     0.00100
C805        C  0.62972262  0.27616579  0.93421412     0.01500
C806        C  0.65292319  0.29171708  0.97308221     0.04300
C807        C  0.69722494  0.27614284  0.98355479    -0.11800
C808        C  0.71783835  0.24212123  0.95823064     0.23600
C809        C  0.69762329  0.23209469  0.91865121    -0.12300
C810        C  0.65190130  0.23889083  0.91351004     0.05000
C811        C  0.75468071  0.20958111  0.97210465     0.27400
C812        C  0.79979009  0.21892743  0.96159726    -0.13000
C813        C  0.82929237  0.18365985  0.95002716     0.05500
C814        C  0.81235668  0.14176303  0.93626349    -0.09000
C815        C  0.77372344  0.12923497  0.96183285     0.06300
C816        C  0.74388763  0.16312141  0.97721311    -0.13400
Br817      Br  0.73260540  0.20149409  0.87559212    -0.05400
Br818      Br  0.62006991  0.31657409  0.02279795     0.00200
Br819      Br  0.88806621  0.18521754  0.97519501     0.00700
Br820      Br  0.68497417  0.14395483  0.99514826    -0.03800
Br821      Br  0.62602468  0.18096925  0.90488406     0.00700
Br822      Br  0.73151432  0.30766505  0.02638335    -0.03100
Br823      Br  0.82051157  0.27937135  0.95563503    -0.03900
Br824      Br  0.76217827  0.06803978  0.98219896     0.00100
C825        C  0.63191637  0.33123533  0.86850830     0.01500
C826        C  0.66126790  0.30300796  0.84253645     0.04300
C827        C  0.70110071  0.31878236  0.82376167    -0.11800
C828        C  0.70663956  0.36319644  0.81440617     0.23600
C829        C  0.67695387  0.39273493  0.83466067    -0.12300
C830        C  0.63929955  0.37839661  0.86039347     0.05000
C831        C  0.73340844  0.37537973  0.77298173     0.27400
C832        C  0.77972407  0.38314374  0.77389907    -0.13000
C833        C  0.80493129  0.38538779  0.73329977     0.05500
C834        C  0.78483655  0.37600007  0.69053056    -0.09000
C835        C  0.73673853  0.38160324  0.69093401     0.06300
C836        C  0.71180040  0.37733318  0.73139074    -0.13400
Br837      Br  0.69089626  0.45286716  0.82680513    -0.05400
Br838      Br  0.64356118  0.24907248  0.81385488     0.00200
Br839      Br  0.86560926  0.40564423  0.73826325     0.00700
Br840      Br  0.64689124  0.37756575  0.73031401    -0.03800
Br841      Br  0.59464980  0.42509136  0.86693017     0.00700
Br842      Br  0.74798773  0.27999667  0.80673667    -0.03100
Br843      Br  0.80754144  0.39280332  0.83115067    -0.03900
Br844      Br  0.70569447  0.42000565  0.64920763     0.00100
C845        C  0.29582896  0.80303845  0.40300807     0.01500
C846        C  0.27687939  0.79986140  0.44693525     0.04300
C847        C  0.23642069  0.77556138  0.45467792    -0.11800
C848        C  0.21670105  0.74869170  0.42136102     0.23600
C849        C  0.23259129  0.75641894  0.37822895    -0.12300
C850        C  0.27223224  0.77922924  0.36884035     0.05000
C851        C  0.17912796  0.71392160  0.42850220     0.27400
C852        C  0.18949023  0.66800268  0.43498422    -0.13000
C853        C  0.15543024  0.63509764  0.43617052     0.05500
C854        C  0.11209332  0.64351638  0.41818107    -0.09000
C855        C  0.09968005  0.68974080  0.42177797     0.06300
C856        C  0.13275085  0.72420360  0.42513067    -0.13400
Br857      Br  0.19035791  0.75799410  0.33236350    -0.05400
Br858      Br  0.29984105  0.83298913  0.49671255     0.00200
Br859      Br  0.16733262  0.58036358  0.46763261     0.00700
Br860      Br  0.11269142  0.78510605  0.43007908    -0.03800
Br861      Br  0.28807471  0.78132260  0.30541576     0.00700
Br862      Br  0.19942600  0.79802160  0.50091858    -0.03100
Br863      Br  0.25025183  0.64681292  0.43610960    -0.03900
Br864      Br  0.04611981  0.70450580  0.45394987     0.00100
C865        C  0.07567378  0.79684650  0.18773319     0.01500
C866        C  0.03251129  0.77756960  0.18112486     0.04300
C867        C  0.02009750  0.73802745  0.20600835    -0.11800
C868        C  0.03826769  0.72883397  0.25015699     0.23600
C869        C  0.07370506  0.75726321  0.26059881    -0.12300
C870        C  0.09728327  0.77946835  0.22649049     0.05000
C871        C  0.02976209  0.68801950  0.28218842     0.27400
C872        C  0.01419956  0.69089553  0.32831614    -0.13000
C873        C  0.02205831  0.65584829  0.35977525     0.05500
C874        C  0.05349321  0.62260448  0.35066054    -0.09000
C875        C  0.05511606  0.61152934  0.30421147     0.06300
C876        C  0.04649380  0.64482679  0.27048541    -0.13400
Br877      Br  0.08248432  0.77894208  0.31945619    -0.05400
Br878      Br  0.98887552  0.80115914  0.13942419     0.00200
Br879      Br  0.97781236  0.64312856  0.40556536     0.00700
Br880      Br  0.06893712  0.63327091  0.21120398    -0.03800
Br881      Br  0.15992426  0.77320086  0.22975970     0.00700
Br882      Br  0.98605995  0.69777150  0.17120621    -0.03100
Br883      Br  0.98629792  0.74082349  0.35678676    -0.03900
Br884      Br  0.06734617  0.55130714  0.28631242     0.00100
C885        C  0.30211698  0.87176111  0.35854309     0.01500
C886        C  0.25642151  0.87903450  0.37288278     0.04300
C887        C  0.22065443  0.87488746  0.34259861    -0.11800
C888        C  0.22754328  0.88239251  0.29638663     0.23600
C889        C  0.27240822  0.89572465  0.28449797    -0.12300
C890        C  0.30938142  0.88867080  0.31441516     0.05000
C891        C  0.18968251  0.88067257  0.26117565     0.27400
C892        C  0.20187235  0.86633471  0.21807445    -0.13000
C893        C  0.17266336  0.87402436  0.18281041     0.05500
C894        C  0.12811342  0.86293511  0.18939440    -0.09000
C895        C  0.11119217  0.87854258  0.23135982     0.06300
C896        C  0.14211372  0.89193673  0.26560679    -0.13400
Br897      Br  0.28260507  0.93158204  0.23091254    -0.05400
Br898      Br  0.24004451  0.89962062  0.43176847     0.00200
Br899      Br  0.17510362  0.93536071  0.16671334     0.00700
Br900      Br  0.11627141  0.93208021  0.30887713    -0.03800
Br901      Br  0.36052980  0.92567659  0.30360561     0.00700
Br902      Br  0.16396595  0.85940545  0.36784744    -0.03100
Br903      Br  0.25328631  0.82998460  0.20658645    -0.03900
Br904      Br  0.04738855  0.88391163  0.24146968     0.00100
C905        C  0.37513987  0.63112979  0.18604403     0.01500
C906        C  0.37431884  0.67836408  0.17798120     0.04300
C907        C  0.37640766  0.70906949  0.21403097    -0.11800
C908        C  0.38856093  0.69513648  0.25840697     0.23600
C909        C  0.40249738  0.64824924  0.26136354    -0.12300
C910        C  0.40056033  0.61980217  0.22341351     0.05000
C911        C  0.38750801  0.73071569  0.29713712     0.27400
C912        C  0.40468746  0.77541552  0.29117442    -0.13000
C913        C  0.39490104  0.81097363  0.32220258     0.05500
C914        C  0.36848339  0.80263726  0.36108940    -0.09000
C915        C  0.36984764  0.75641632  0.37399706     0.06300
C916        C  0.37147570  0.72210444  0.34141074    -0.13400
Br917      Br  0.42139979  0.61417785  0.31332714    -0.05400
Br918      Br  0.37558896  0.70259771  0.11789816     0.00200
Br919      Br  0.43725405  0.85935976  0.32463576     0.00700
Br920      Br  0.34243042  0.66810250  0.35867254    -0.03800
Br921      Br  0.45160602  0.58272991  0.21030042     0.00700
Br922      Br  0.34891054  0.76638306  0.20252243    -0.03100
Br923      Br  0.44718615  0.78747771  0.24419190    -0.03900
Br924      Br  0.37092865  0.73963752  0.43663027     0.00100
C925        C  0.13102785  0.58614623  0.36002394     0.01500
C926        C  0.15415682  0.61767214  0.33228079     0.04300
C927        C  0.19663762  0.60985840  0.31512607    -0.11800
C928        C  0.21400800  0.56731353  0.31113608     0.23600
C929        C  0.19404907  0.53456714  0.33955594    -0.12300
C930        C  0.15336363  0.54348226  0.36438092     0.05000
C931        C  0.24878661  0.55952271  0.27363978     0.27400
C932        C  0.23450265  0.55810124  0.22844299    -0.13000
C933        C  0.26584593  0.55636021  0.19212793     0.05500
C934        C  0.31289823  0.56464410  0.19881800    -0.09000
C935        C  0.32656671  0.55491407  0.24382083     0.06300
C936        C  0.29558067  0.55587084  0.28069941    -0.13400
Br937      Br  0.22931255  0.48400926  0.35565519    -0.05400
Br938      Br  0.13228202  0.67529319  0.31694189     0.00200
Br939      Br  0.24239595  0.54566540  0.13292832     0.00700
Br940      Br  0.31833365  0.55298165  0.34077834    -0.03800
Br941      Br  0.13283944  0.49697765  0.40495743     0.00700
Br942      Br  0.23770255  0.65619759  0.32542957    -0.03100
Br943      Br  0.17096529  0.55667144  0.21611597    -0.03900
Br944      Br  0.37770608  0.51680095  0.25279195     0.00100
C945        C  0.30305028  0.62859512  0.14382343     0.01500
C946        C  0.27418835  0.65048169  0.17525226     0.04300
C947        C  0.23466725  0.67145742  0.16241171    -0.11800
C948        C  0.23160151  0.69018331  0.11981795     0.23600
C949        C  0.26419308  0.67559705  0.08827450    -0.12300
C950        C  0.29512476  0.64042693  0.09815498     0.05000
C951        C  0.19893957  0.72870000  0.11277329     0.27400
C952        C  0.15236426  0.72139098  0.11003422    -0.13000
C953        C  0.12165811  0.75763947  0.11183240     0.05500
C954        C  0.13522601  0.80132839  0.12460911    -0.09000
C955        C  0.18199462  0.80944951  0.11510335     0.06300
C956        C  0.21341579  0.77359041  0.11245183    -0.13400
Br957      Br  0.27531357  0.70911367  0.03610169    -0.05400
Br958      Br  0.28890784  0.65866206  0.23613566     0.00200
Br959      Br  0.06614678  0.74975075  0.08115827     0.00700
Br960      Br  0.27673250  0.78721974  0.10901341    -0.03800
Br961      Br  0.33134296  0.61903226  0.04900118     0.00700
Br962      Br  0.18611594  0.67279212  0.20456561    -0.03100
Br963      Br  0.12934056  0.66150016  0.10559483    -0.03900
Br964      Br  0.20340687  0.86509981  0.08888123     0.00100
C965        C  0.12280182  0.34935435  0.70704925     0.01500
C966        C  0.12422804  0.38983554  0.73282132     0.04300
C967        C  0.15543376  0.39504641  0.76961391    -0.11800
C968        C  0.19259906  0.36554112  0.77618309     0.23600
C969        C  0.19348216  0.32869694  0.74749129    -0.12300
C970        C  0.15583945  0.31729147  0.72182181     0.05000
C971        C  0.22888157  0.37033185  0.81318966     0.27400
C972        C  0.27462676  0.38025338  0.80315613    -0.13000
C973        C  0.30842773  0.37569184  0.83638109     0.05500
C974        C  0.30083553  0.35057864  0.87554270    -0.09000
C975        C  0.25556418  0.35478456  0.89104186     0.06300
C976        C  0.21965157  0.36264534  0.85976954    -0.13400
Br977      Br  0.24718198  0.29479940  0.73677668    -0.05400
Br978      Br  0.08497738  0.43914064  0.72164625     0.00200
Br979      Br  0.34712980  0.42554976  0.84472347     0.00700
Br980      Br  0.15878191  0.35937149  0.88118441    -0.03800
Br981      Br  0.15338547  0.25557084  0.70699645     0.00700
Br982      Br  0.14892956  0.44483102  0.80908063    -0.03100
Br983      Br  0.29376257  0.40051633  0.74512107    -0.03900
Br984      Br  0.24311096  0.34967810  0.95430727     0.00100
C985        C  0.14670729  0.10579837  0.91452163     0.01500
C986        C  0.19022315  0.08694713  0.90853881     0.04300
C987        C  0.22919132  0.11221991  0.91876140    -0.11800
C988        C  0.22480667  0.15397469  0.94066138     0.23600
C989        C  0.18239059  0.16184311  0.96081842    -0.12300
C990        C  0.14413577  0.13656109  0.94951163     0.05000
C991        C  0.25830137  0.19264730  0.93535113     0.27400
C992        C  0.30414383  0.19441153  0.94936737    -0.13000
C993        C  0.32897362  0.23618559  0.94541711     0.05500
C994        C  0.31254335  0.27326556  0.91756795    -0.09000
C995        C  0.27286890  0.26150338  0.89609990     0.06300
C996        C  0.24323254  0.23141675  0.91370871    -0.13400
Br997      Br  0.17601946  0.20899246  0.00214244    -0.05400
Br998      Br  0.19622463  0.02403326  0.89749049     0.00200
Br999      Br  0.38488520  0.23687953  0.97706645     0.00700
Br1000     Br  0.18339540  0.24940164  0.90569140    -0.03800
Br1001     Br  0.09178734  0.13672846  0.98719471     0.00700
Br1002     Br  0.28643726  0.08852494  0.90158132    -0.03100
Br1003     Br  0.33224114  0.14320027  0.97894540    -0.03900
Br1004     Br  0.26655028  0.26670196  0.83401248     0.00100
C1005       C  0.05614244  0.30134856  0.69184933     0.01500
C1006       C  0.04569806  0.25713194  0.68005096     0.04300
C1007       C  0.04894247  0.22223306  0.71237761    -0.11800
C1008       C  0.04877696  0.23238599  0.75897816     0.23600
C1009       C  0.03963545  0.27793357  0.76972477    -0.12300
C1010       C  0.04084449  0.31154742  0.73588393     0.05000
C1011       C  0.05746021  0.19818971  0.79670779     0.27400
C1012       C  0.02935327  0.16145792  0.80688515    -0.13000
C1013       C  0.03613442  0.13425801  0.84584965     0.05500
C1014       C  0.07494628  0.13852874  0.87216450    -0.09000
C1015       C  0.09188411  0.18316365  0.87020896     0.06300
C1016       C  0.08938249  0.20833332  0.82940750    -0.13400
Br1017     Br  0.02131537  0.29447696  0.83000974    -0.05400
Br1018     Br  0.99142659  0.25136103  0.64560942     0.00200
Br1019     Br  0.98346123  0.12041761  0.87962853     0.00700
Br1020     Br  0.12722102  0.25962504  0.81910551    -0.03800
Br1021     Br  0.01066349  0.36695670  0.74761893     0.00700
Br1022     Br  0.04713849  0.16252439  0.68903864    -0.03100
Br1023     Br  0.97797963  0.15121020  0.77208768    -0.03900
Br1024     Br  0.07538499  0.22108354  0.91911022     0.00100
C1025       C  0.37034406  0.29444031  0.85937437     0.01500
C1026       C  0.38951355  0.25254651  0.86933900     0.04300
C1027       C  0.38397690  0.21555973  0.84125647    -0.11800
C1028       C  0.37634369  0.22246352  0.79532926     0.23600
C1029       C  0.37136848  0.26764194  0.78091522    -0.12300
C1030       C  0.37118580  0.30347184  0.81227319     0.05000
C1031       C  0.36722131  0.18473632  0.76308567     0.27400
C1032       C  0.39822608  0.15496691  0.74344571    -0.13000
C1033       C  0.38710461  0.13015471  0.70422436     0.05500
C1034       C  0.34234409  0.13291171  0.68589225    -0.09000
C1035       C  0.31162127  0.15896279  0.71223832     0.06300
C1036       C  0.32348444  0.17795290  0.75241305    -0.13400
Br1037     Br  0.36603241  0.28120942  0.71788445    -0.05400
Br1038     Br  0.44812333  0.25883585  0.88823411     0.00200
Br1039     Br  0.43314984  0.08940833  0.68375716     0.00700
Br1040     Br  0.28563382  0.16721596  0.80230660    -0.03800
Br1041     Br  0.40642955  0.35313912  0.79188564     0.00700
Br1042     Br  0.38322698  0.15739330  0.86868821    -0.03100
Br1043     Br  0.44681185  0.13468573  0.77938922    -0.03900
Br1044     Br  0.25109165  0.17176543  0.69871482     0.00100
C1045       C  0.30066438  0.14586736  0.61324564     0.01500
C1046       C  0.25718891  0.14303668  0.59534636     0.04300
C1047       C  0.22720051  0.17974068  0.59648280    -0.11800
C1048       C  0.24249043  0.22501415  0.60058759     0.23600
C1049       C  0.29072370  0.22859130  0.60077251    -0.12300
C1050       C  0.31853569  0.19042259  0.61099881     0.05000
C1051       C  0.20760371  0.26461452  0.60196578     0.27400
C1052       C  0.16553945  0.25935273  0.58184699    -0.13000
C1053       C  0.12655793  0.27289328  0.60525209     0.05500
C1054       C  0.12696277  0.31373201  0.63032448    -0.09000
C1055       C  0.17059384  0.33414917  0.62753179     0.06300
C1056       C  0.21081301  0.30826374  0.62112816    -0.13400
Br1057     Br  0.32257333  0.27920833  0.57544908    -0.05400
Br1058     Br  0.24568354  0.10018799  0.54979936     0.00200
Br1059     Br  0.07671796  0.23991373  0.58573782     0.00700
Br1060     Br  0.26519797  0.33741473  0.63824318    -0.03800
Br1061     Br  0.38215084  0.20041848  0.61795773     0.00700
Br1062     Br  0.16571621  0.16138885  0.60084230    -0.03100
Br1063     Br  0.16435961  0.28735453  0.52438957    -0.03900
Br1064     Br  0.17551230  0.39717174  0.62737037     0.00100
C1065       C  0.12461643  0.07996764  0.83630015     0.01500
C1066       C  0.12477516  0.03611196  0.81624608     0.04300
C1067       C  0.14886767  0.02922314  0.77510896    -0.11800
C1068       C  0.16582434  0.06471002  0.74976735     0.23600
C1069       C  0.15523947  0.10638647  0.76448501    -0.12300
C1070       C  0.14519331  0.11376210  0.80903484     0.05000
C1071       C  0.20654758  0.06065414  0.71965714     0.27400
C1072       C  0.24914764  0.05904662  0.73928428    -0.13000
C1073       C  0.28835283  0.06101542  0.71297513     0.05500
C1074       C  0.28568646  0.07315642  0.66682741    -0.09000
C1075       C  0.24494861  0.05874149  0.64697536     0.06300
C1076       C  0.20460907  0.05838859  0.67264325    -0.13400
Br1077     Br  0.14971199  0.15173414  0.72203089    -0.05400
Br1078     Br  0.10127788  0.98310643  0.84439548     0.00200
Br1079     Br  0.34397740  0.04304407  0.74029335     0.00700
Br1080     Br  0.14805696  0.04818687  0.64411014    -0.03800
Br1081     Br  0.18150328  0.16066431  0.83134573     0.00700
Br1082     Br  0.15858620  0.97311499  0.74937221    -0.03100
Br1083     Br  0.25383610  0.05844661  0.80265863    -0.03900
Br1084     Br  0.24920352  0.00823115  0.60758700     0.00100
C1085       C  0.04512579  0.30904770  0.34903880     0.01500
C1086       C  0.04280465  0.31691163  0.30164800     0.04300
C1087       C  0.04161380  0.28065636  0.27105750    -0.11800
C1088       C  0.03744247  0.23566337  0.28650553     0.23600
C1089       C  0.02988748  0.23021054  0.33382408    -0.12300
C1090       C  0.02613422  0.26797184  0.36154481     0.05000
C1091       C  0.04407945  0.19656251  0.25391691     0.27400
C1092       C  0.01860246  0.18933818  0.21352437    -0.13000
C1093       C  0.03156264  0.15518429  0.18232208     0.05500
C1094       C  0.07686873  0.13929856  0.18254448    -0.09000
C1095       C  0.10300853  0.15731115  0.21765473     0.06300
C1096       C  0.08267364  0.16978409  0.25747319    -0.13400
Br1097     Br  0.02741401  0.17371649  0.36607511    -0.05400
Br1098     Br  0.02041497  0.37248488  0.27750762     0.00200
Br1099     Br  0.98734377  0.13548398  0.13959272     0.00700
Br1100     Br  0.11941693  0.16438361  0.30943452    -0.03800
Br1101     Br  0.97557414  0.27071337  0.40064292     0.00700
Br1102     Br  0.05584216  0.29416701  0.20934402    -0.03100
Br1103     Br  0.96988329  0.22728128  0.19550134    -0.03900
Br1104     Br  0.14239646  0.20466807  0.20333118     0.00100
C1105       C  0.28693729  0.12397773  0.43129957     0.01500
C1106       C  0.29179418  0.16406113  0.45463028     0.04300
C1107       C  0.25442603  0.19410738  0.45868947    -0.11800
C1108       C  0.21102740  0.18338905  0.44164967     0.23600
C1109       C  0.20493730  0.13759972  0.43219797    -0.11100
C1110       C  0.24180672  0.10757077  0.43402372     0.05000
C1111       C  0.17420427  0.21878269  0.43130540     0.27400
C1112       C  0.13089150  0.22098538  0.45151814    -0.13000
C1113       C  0.10017557  0.25781371  0.44156921     0.05500
C1114       C  0.10882609  0.28900897  0.40496833    -0.09000
C1115       C  0.14563686  0.27480544  0.37898815     0.06300
C1116       C  0.18148205  0.25012151  0.39718948    -0.13400
Br1117     Br  0.14841924  0.11487800  0.41259969    -0.05400
Br1118     Br  0.33282187  0.16050770  0.50390400     0.00200
Br1119     Br  0.04830999  0.26066633  0.47914669     0.00700
Br1120     Br  0.23886270  0.27679098  0.39338017    -0.03800
Br1121     Br  0.22999797  0.04502399  0.44428394     0.00700
Br1122     Br  0.26275259  0.24699861  0.49194892    -0.03100
Br1123     Br  0.11627488  0.17742159  0.49711942    -0.03900
Br1124     Br  0.13553836  0.27053325  0.31670524     0.00100
C1125       C  0.28821349  0.08628009  0.35941378     0.01500
C1126       C  0.26492604  0.12050853  0.33401021     0.04300
C1127       C  0.23702208  0.11045254  0.29786018    -0.11800
C1128       C  0.22338142  0.06703629  0.29003142     0.23600
C1129       C  0.24121977  0.03369328  0.31790304    -0.12300
C1130       C  0.27599588  0.04188602  0.34882446     0.05000
C1131       C  0.19036682  0.05801904  0.25283337     0.27400
C1132       C  0.14374687  0.05649854  0.26077867    -0.13000
C1133       C  0.11347741  0.06098295  0.22456864     0.05500
C1134       C  0.12951871  0.07303699  0.18081519    -0.09000
C1135       C  0.17402355  0.05876376  0.17242275     0.06300
C1136       C  0.20491370  0.05414249  0.20801586    -0.13400
Br1137     Br  0.21239295  0.97893500  0.31936969    -0.05400
Br1138     Br  0.27104285  0.18301393  0.34577030     0.00200
Br1139     Br  0.05067290  0.05127035  0.23606706     0.00700
Br1140     Br  0.26647414  0.04055791  0.19509654    -0.03800
Br1141     Br  0.30426942  0.99099363  0.37459541     0.00700
Br1142     Br  0.22051966  0.15629983  0.25650256    -0.03100
Br1143     Br  0.12081665  0.04960195  0.32081085    -0.03900
Br1144     Br  0.18749008  0.02870316  0.11765083     0.00100
C1145       C  0.35648439  0.13214255  0.36521045     0.01500
C1146       C  0.37537631  0.17544297  0.37201378     0.04300
C1147       C  0.38768739  0.20329817  0.33430844    -0.11800
C1148       C  0.37366714  0.19379836  0.28961166     0.23600
C1149       C  0.36012921  0.14869461  0.28441980    -0.12300
C1150       C  0.36384552  0.11764964  0.32035165     0.05000
C1151       C  0.37398899  0.23037228  0.25144567     0.27400
C1152       C  0.36711122  0.27625076  0.26267834    -0.13000
C1153       C  0.37273264  0.31036546  0.23031335     0.05500
C1154       C  0.36238098  0.30164387  0.18485258    -0.09000
C1155       C  0.37552828  0.25825262  0.17126055     0.06300
C1156       C  0.38243552  0.22326325  0.20394863    -0.13400
Br1157     Br  0.32656066  0.12765087  0.23522978    -0.05400
Br1158     Br  0.39791436  0.19358338  0.42874233     0.00200
Br1159     Br  0.38589699  0.37012961  0.24986462     0.00700
Br1160     Br  0.40198595  0.16826947  0.17787201    -0.03800
Br1161     Br  0.37382027  0.05531544  0.30701071     0.00700
Br1162     Br  0.42837046  0.25119994  0.34430868    -0.03100
Br1163     Br  0.33729701  0.29528462  0.31712546    -0.03900
Br1164     Br  0.39503934  0.24865803  0.11024323     0.00100
C1165       C  0.29672033  0.35028091  0.19795305     0.01500
C1166       C  0.27309662  0.31441771  0.21970755     0.04300
C1167       C  0.24476137  0.32210053  0.25568758    -0.11800
C1168       C  0.22970345  0.36484099  0.26679085     0.23600
C1169       C  0.24933237  0.40067944  0.24298349    -0.12300
C1170       C  0.28519390  0.39417681  0.21196610     0.05000
C1171       C  0.19150721  0.37089577  0.30022108     0.27400
C1172       C  0.14703240  0.37777896  0.28567304    -0.13000
C1173       C  0.11242723  0.38272472  0.31740744     0.05500
C1174       C  0.11671350  0.36386386  0.36068445    -0.09000
C1175       C  0.16115518  0.36918463  0.37754172     0.06300
C1176       C  0.19862814  0.37220431  0.34716809    -0.13400
Br1177     Br  0.22312680  0.45774157  0.24870359    -0.05400
Br1178     Br  0.27636815  0.25189475  0.20079453     0.00200
Br1179     Br  0.09202654  0.44349352  0.31542961     0.00700
Br1180     Br  0.25909726  0.37963466  0.36870113    -0.03800
Br1181     Br  0.31427451  0.44597051  0.18810910     0.00700
Br1182     Br  0.23183867  0.27122946  0.28971704    -0.03100
Br1183     Br  0.13328947  0.39384252  0.22474944    -0.03900
Br1184     Br  0.17012679  0.37266746  0.44092686     0.00100
C1185       C  0.29317469  0.31889341  0.12345904     0.01500
C1186       C  0.30025050  0.28553464  0.09255323     0.04300
C1187       C  0.26699778  0.25224185  0.08702440    -0.11800
C1188       C  0.22433022  0.25518537  0.10840835     0.23600
C1189       C  0.21425045  0.29777378  0.12628483    -0.12300
C1190       C  0.24703740  0.33146692  0.12556989     0.05000
C1191       C  0.19138567  0.21583329  0.11024318     0.27400
C1192       C  0.14514019  0.22009634  0.09801120    -0.13000
C1193       C  0.11558768  0.18245370  0.10195216     0.05500
C1194       C  0.13136093  0.13954751  0.11777471    -0.09000
C1195       C  0.17820112  0.13513021  0.11332774     0.06300
C1196       C  0.20577888  0.17173424  0.12187215    -0.13400
Br1197     Br  0.16422256  0.30799898  0.16452086    -0.05400
Br1198     Br  0.33004616  0.30773216  0.04038398     0.00200
Br1199     Br  0.05604002  0.19055635  0.07996765     0.00700
Br1200     Br  0.26405515  0.15611469  0.14362248    -0.03800
Br1201     Br  0.22867512  0.39308162  0.12213676     0.00700
Br1202     Br  0.28015064  0.20550282  0.04827165    -0.03100
Br1203     Br  0.12195868  0.27538061  0.07159301    -0.03900
Br1204     Br  0.19768479  0.11203771  0.05651111     0.00100
loop_ 
_geom_bond_atom_site_label_1 
_geom_bond_atom_site_label_2 
_geom_bond_distance 
_geom_bond_site_symmetry_2 
_ccdc_geom_bond_type 
C1            C9   1.568       .  S
C1         C1154   1.613       .  S
C1         C1165   1.585       .  S
C1         C1185   1.602       .  S
C2           C96   1.608       .  S
C2         C1105   1.617       .  S
C2         C1125   1.611       .  S
C2         C1145   1.633       .  S
C3          C135   1.595       .  S
C3         C1094   1.601       .  S
C3         C1134   1.604       .  S
C3         C1194   1.618       .  S
C4          C222   1.597       .  S
C4         C1085   1.618       .  S
C4         C1114   1.643       .  S
C4         C1174   1.629       .  S
C5          C106   1.591       .  S
C5         C1034   1.607       .  S
C5         C1045   1.615       .  S
C5         C1074   1.618       .  S
C6          C165   1.597       .  S
C6          C985   1.587       .  S
C6         C1014   1.623       .  S
C6         C1065   1.598       .  S
C7          C192   1.634       .  S
C7          C965   1.654       .  S
C7         C1005   1.608       .  S
C7         C1054   1.641       .  S
C8           C29   1.616       .  S
C8          C974   1.629       .  S
C8          C994   1.631       .  S
C8         C1025   1.620       .  S
C9           N27   1.360       .  A
C9           C46   1.490       .  S
N10          N27   1.335       .  A
N10          N32   1.320       .  A
N10         Co47   2.105       .  S
C11          N36   1.357       .  A
C11          C49   1.497       .  S
C11          H56   1.082       .  S
H12          C53   1.063       .  S
C13          N37   1.347       .  A
C13          C17   1.486       .  S
C13          H42   1.058       .  S
Co14         N32   2.147       .  S
Co14         N22   2.152       .  S
Co14         N54   2.145   1_554  S
Co14         N30   2.165   1_554  S
Co14        Cl58   2.475       .  S
N15          C53   1.355       .  A
N15          N22   1.321       .  A
N15         Co16   2.170       .  S
Co16         N19   2.187       .  S
Co16         N36   2.173   1_554  S
Co16         N23   2.189   1_554  S
Co16        Cl58   2.534       .  S
C17         C129   1.628       .  S
C17          N55   1.373       .  A
N18          N25   1.328       .  A
N18          N48   1.349       .  A
N18         Co51   2.184       .  S
N19          N37   1.320       .  A
N19          N55   1.344       .  A
N20          C49   1.372       .  A
N20          N30   1.346       .  A
H21          C46   1.078       .  S
N22          N43   1.339       .  A
N23          N41   1.333       .  A
N23          N28   1.347       .  A
C24         C131   1.612       .  S
C24          N28   1.374       .  A
C24          C52   1.492       .  S
N25          C40   1.361       .  A
N25         Co47   2.189       .  S
C26          N54   1.348       .  A
C26          C29   1.486       .  S
C26          H60   1.065       .  S
C29          N50   1.383       .  A
N30          N36   1.326       .  A
N31          C57   1.353       .  A
N31          N33   1.322       .  A
N31         Co47   2.123   1_556  S
N32          C46   1.346       .  A
N33          N61   1.342       .  A
N33         Co51   2.184   1_556  S
H34          C57   1.076       .  S
H35          C52   1.076       .  S
N37         Co51   2.134       .  S
N38          N50   1.347       .  A
N38          N54   1.322       .  A
N38         Co47   2.186   1_556  S
C39         C190   1.625       .  S
C39          N43   1.371       .  A
C39          C53   1.507       .  S
C40          C59   1.494       .  S
C40          H44   1.075       .  S
N41          C52   1.356       .  A
N41         Co51   2.183   1_556  S
C45         C123   1.595       .  S
C45          N61   1.374       .  A
C45          C57   1.481       .  S
Co47        Cl58   2.528       .  S
N48          C59   1.379       .  A
C49         C119   1.615       .  S
Co51        Cl58   2.499       .  S
C59          C62   1.616       .  S
C62         C905   1.618       .  S
C62         C934   1.643       .  S
C62         C945   1.591       .  S
C63         C155   1.590       .  S
C63         C865   1.613       .  S
C63         C894   1.587       .  S
C63         C954   1.631       .  S
C64         C200   1.585       .  S
C64         C854   1.641       .  S
C64         C874   1.608       .  S
C64         C925   1.606       .  S
C65          C66   1.602       .  S
C65         C845   1.600       .  S
C65         C885   1.634       .  S
C65         C914   1.633       .  S
C66          N84   1.374       .  A
C66         C103   1.485       .  S
N67          N84   1.347       .  A
N67          N89   1.325       .  A
N67        Co104   2.170       .  S
C68          N93   1.353       .  A
C68         C106   1.483       .  S
C68         H113   1.076       .  S
H69         C110   1.075       .  S
C70          N94   1.355       .  A
C70          C74   1.499       .  S
C70          H99   1.077       .  S
Co71         N89   2.156       .  S
Co71         N79   2.162   1_565  S
Co71        N111   2.183       .  S
Co71         N87   2.168   1_565  S
Co71       Cl115   2.519       .  S
N72         C110   1.356       .  A
N72          N79   1.324       .  A
N72         Co73   2.167       .  S
Co73         N76   2.136       .  S
Co73         N93   2.146       .  S
Co73         N80   2.236       .  S
Co73       Cl115   2.507   1_545  S
C74         C188   1.600       .  S
C74         N112   1.366       .  A
N75          N82   1.324       .  A
N75         N105   1.350       .  A
N75        Co108   2.209       .  S
N76          N94   1.323       .  A
N76         N112   1.340       .  A
N77         C106   1.370       .  A
N77          N87   1.339       .  A
H78         C103   1.063       .  S
N79         N100   1.343       .  A
N80          N98   1.330       .  A
N80          N85   1.352       .  A
C81         C121   1.641       .  S
C81          N85   1.385       .  A
C81         C109   1.499       .  S
N82          C97   1.347       .  A
N82        Co104   2.138       .  S
C83         N111   1.366       .  A
C83          C86   1.494       .  S
C83         H117   1.081       .  S
C86         C124   1.616       .  S
C86         N107   1.375       .  A
N87          N93   1.329       .  A
N88         C114   1.343       .  A
N88          N90   1.326       .  A
N88        Co104   2.115       .  S
N89         C103   1.348       .  A
N90         N118   1.345       .  A
N90        Co108   2.199       .  S
H91         C114   1.077       .  S
H92         C109   1.081       .  S
N94        Co108   2.173   1_545  S
N95         N107   1.347       .  A
N95         N111   1.327       .  A
N95        Co104   2.185       .  S
C96         N100   1.370       .  A
C96         C110   1.496       .  S
C97         C116   1.478       .  S
C97         H101   1.074       .  S
N98         C109   1.370       .  A
N98        Co108   2.186   1_545  S
C102        C133   1.596       .  S
C102        N118   1.379       .  A
C102        C114   1.475       .  S
Co104      Cl115   2.519       .  S
N105        C116   1.384       .  A
Co108      Cl115   2.521       .  S
C116        C127   1.614       .  S
C119        C794   1.599       .  S
C119        C805   1.622       .  S
C119        C825   1.617       .  S
C120        C212   1.610       .  S
C120        C754   1.596       .  S
C120        C774   1.603       .  S
C120        C834   1.625       .  S
C121        C725   1.649       .  S
C121        C745   1.610       .  S
C121        C785   1.627       .  S
C122        C143   1.605       .  S
C122        C734   1.641       .  S
C122        C765   1.623       .  S
C122        C814   1.614       .  S
C123        C674   1.640       .  S
C123        C694   1.610       .  S
C123        C705   1.602       .  S
C124        C625   1.645       .  S
C124        C645   1.648       .  S
C124        C714   1.605       .  S
C125        C242   1.570       .  S
C125        C605   1.619       .  S
C125        C634   1.627       .  S
C125        C665   1.589       .  S
C126        C175   1.605       .  S
C126        C614   1.599       .  S
C126        C654   1.617       .  S
C126        C685   1.608       .  S
C127        C554   1.629       .  S
C127        C574   1.635       .  S
C127        C585   1.601       .  S
C128        C207   1.595       .  S
C128        C514   1.612       .  S
C128        C534   1.592       .  S
C128        C594   1.596       .  S
C129        C485   1.625       .  S
C129        C505   1.638       .  S
C129        C545   1.629       .  S
C130        C171   1.584       .  S
C130        C494   1.602       .  S
C130        C525   1.611       .  S
C130        C565   1.597       .  S
C131        C425   1.603       .  S
C131        C454   1.613       .  S
C131        C465   1.615       .  S
C132        C228   1.619       .  S
C132        C385   1.607       .  S
C132        C405   1.592       .  S
C132        C445   1.616       .  S
C133        C365   1.601       .  S
C133        C394   1.596       .  S
C133        C434   1.621       .  S
C134        C150   1.626       .  S
C134        C374   1.629       .  S
C134        C414   1.643       .  S
C134        C474   1.657       .  S
C135        N153   1.370       .  A
C135        C172   1.492       .  S
N136        N153   1.339       .  A
N136        N158   1.325       .  A
N136       Co173   2.169   1_445  S
C137        N162   1.353       .  A
C137        C175   1.490       .  S
C137        H182   1.060       .  S
H138        C179   1.081       .  S
C139        N163   1.341       .  A
C139        C143   1.480       .  S
C139        H168   1.073       .  S
Co140       N158   2.168   1_565  S
Co140       N148   2.152   1_564  S
Co140       N180   2.145       .  S
Co140       N156   2.163   1_554  S
Co140      Cl184   2.496   1_455  S
N141        C179   1.352       .  A
N141        N148   1.324       .  A
N141       Co142   2.142   1_445  S
Co142       N145   2.181   1_565  S
Co142       N162   2.166   1_655  S
Co142       N149   2.158       .  S
Co142      Cl184   2.513   1_556  S
C143        N181   1.374       .  A
N144        N151   1.319       .  A
N144        N174   1.343       .  A
N144       Co177   2.163   1_545  S
N145        N163   1.323       .  A
N145        N181   1.344       .  A
N146        C175   1.371       .  A
N146        N156   1.339       .  A
H147        C172   1.080       .  S
N148        N169   1.340       .  A
N149        N167   1.320       .  A
N149        N154   1.337       .  A
C150        N154   1.360       .  A
C150        C178   1.505       .  S
N151        C166   1.345       .  A
N151       Co173   2.118   1_545  S
C152        N180   1.350       .  A
C152        C155   1.479       .  S
C152        H186   1.064       .  S
C155        N176   1.370       .  A
N156        N162   1.323       .  A
N157        C183   1.346       .  A
N157        N159   1.326       .  A
N157       Co173   2.146       .  S
N158        C172   1.361       .  A
N159        N187   1.338       .  A
N159       Co177   2.144       .  S
H160        C183   1.074       .  S
H161        C178   1.070       .  S
N163       Co177   2.131   1_546  S
N164        N176   1.341       .  A
N164        N180   1.319       .  A
N164       Co173   2.140   1_455  S
C165        N169   1.371       .  A
C165        C179   1.483       .  S
C166        C185   1.480       .  S
C166        H170   1.070       .  S
N167        C178   1.365       .  A
N167       Co177   2.180   1_556  S
C171        N187   1.367       .  A
C171        C183   1.489       .  S
Co173      Cl184   2.497       .  S
N174        C185   1.377       .  A
Co177      Cl184   2.497       .  S
C185        C189   1.604       .  S
C188        C314   1.634       .  S
C188        C325   1.599       .  S
C188        C354   1.604       .  S
C189        C265   1.478       .  S
C189        C285   1.645       .  S
C189        C345   1.627       .  S
C190        C245   1.618       .  S
C190        C274   1.659       .  S
C190        C305   1.639       .  S
C191        C232   1.600       .  S
C191        C254   1.616       .  S
C191        C294   1.598       .  S
C191        C334   1.599       .  S
C192        N210   1.377       .  A
C192        C229   1.503       .  S
N193        N210   1.352       .  A
N193        N215   1.326       .  A
N193       Co230   2.195   1_455  S
C194        N219   1.352       .  A
C194        C232   1.485       .  S
C194        H239   1.079       .  S
H195        C236   1.071       .  S
C196        N220   1.351       .  A
C196        C200   1.476       .  S
C196        H225   1.080       .  S
Co197       N215   2.194   1_655  S
Co197       N205   2.178   1_655  S
Co197       N237   2.170       .  S
Co197       N213   2.186       .  S
Co197      Cl241   2.508       .  S
N198        C236   1.347       .  A
N198        N205   1.324       .  A
N198       Co199   2.133   1_455  S
Co199       N202   2.178   1_655  S
Co199       N219   2.144       .  S
Co199       N206   2.117       .  S
Co199      Cl241   2.504       .  S
C200        N238   1.376       .  A
N201        N208   1.324       .  A
N201        N231   1.330       .  A
N201       Co234   2.127   1_455  S
N202        N220   1.323       .  A
N202        N238   1.344       .  A
N203        C232   1.376       .  A
N203        N213   1.345       .  A
H204        C229   1.076       .  S
N205        N226   1.344       .  A
N206        N224   1.327       .  A
N206        N211   1.338       .  A
C207        N211   1.358       .  A
C207        C235   1.499       .  S
N208        C223   1.350       .  A
N208       Co230   2.140   1_455  S
C209        N237   1.353       .  A
C209        C212   1.490       .  S
C209        H243   1.074       .  S
C212        N233   1.374       .  A
N213        N219   1.323       .  A
N214        C240   1.364       .  A
N214        N216   1.327       .  A
N214       Co230   2.173       .  S
N215        C229   1.362       .  A
N216        N244   1.340       .  A
N216       Co234   2.173       .  S
H217        C240   1.081       .  S
H218        C235   1.078       .  S
N220       Co234   2.126   1_455  S
N221        N233   1.346       .  A
N221        N237   1.327       .  A
N221       Co230   2.173       .  S
C222        N226   1.372       .  A
C222        C236   1.476       .  S
C223        C242   1.487       .  S
C223        H227   1.073       .  S
N224        C235   1.366       .  A
N224       Co234   2.206       .  S
C228        N244   1.368       .  A
C228        C240   1.500       .  S
Co230      Cl241   2.523       .  S
N231        C242   1.359       .  A
Co234      Cl241   2.499       .  S
C245        C246   1.441       .  A
C245        C250   1.437       .  A
C246        C247   1.438       .  A
C246       Br258   1.928       .  S
C247        C248   1.412       .  A
C247       Br262   1.903       .  S
C248        C251   1.526       .  S
C248        C249   1.383       .  A
C249        C250   1.403       .  A
C249       Br257   1.919       .  S
C250       Br261   1.883       .  S
C251        C252   1.409       .  A
C251        C256   1.410       .  A
C252        C253   1.414       .  A
C252       Br263   1.899       .  S
C253        C254   1.421       .  A
C253       Br259   1.909       .  S
C254        C255   1.440       .  A
C255        C256   1.429       .  A
C255       Br264   1.917       .  S
C256       Br260   1.927       .  S
C265        C266   1.714       .  A
C265        C270   1.690       .  A
C266        C267   1.606       .  A
C266       Br278   1.924       .  S
C267        C268   1.568       .  A
C267       Br282   1.908       .  S
C268        C271   1.585       .  S
C268        C269   1.603       .  A
C269        C270   1.633       .  A
C269       Br277   1.904       .  S
C270       Br281   1.915       .  S
C271        C272   1.403       .  A
C271        C276   1.417       .  A
C272        C273   1.389       .  A
C272       Br283   1.891       .  S
C273        C274   1.440       .  A
C273       Br279   1.893       .  S
C274        C275   1.471       .  A
C275        C276   1.462       .  A
C275       Br284   1.902       .  S
C276       Br280   1.936       .  S
C285        C286   1.407       .  A
C285        C290   1.545       .  A
C286        C287   1.396       .  A
C286       Br298   1.911       .  S
C287        C288   1.399       .  A
C287       Br302   1.904       .  S
C288        C291   1.549       .  S
C288        C289   1.441       .  A
C289        C290   1.470       .  A
C289       Br297   1.899       .  S
C290       Br301   3.684       .  S
C291        C292   1.438       .  A
C291        C296   1.436       .  A
C292        C293   1.415       .  A
C292       Br303   1.949       .  S
C293        C294   1.425       .  A
C293       Br299   1.934       .  S
C294        C295   1.395       .  A
C295        C296   1.427       .  A
C295       Br304   1.915       .  S
C296       Br300   1.920       .  S
C305        C306   1.411       .  A
C305        C310   1.424       .  A
C306        C307   1.411       .  A
C306       Br318   1.916       .  S
C307        C308   1.442       .  A
C307       Br322   1.920       .  S
C308        C311   1.590       .  S
C308        C309   1.455       .  A
C309        C310   1.460       .  A
C309       Br317   1.930       .  S
C310       Br321   1.938       .  S
C311        C312   1.369       .  A
C311        C316   1.481       .  A
C312        C313   1.420       .  A
C312       Br323   1.931       .  S
C313        C314   1.399       .  A
C313       Br319   1.910       .  S
C314        C315   1.453       .  A
C315        C316   1.489       .  A
C315       Br324   1.923       .  S
C316       Br320   1.885       .  S
C325        C326   1.432       .  A
C325        C330   1.406       .  A
C326        C327   1.423       .  A
C326       Br338   1.921       .  S
C327        C328   1.426       .  A
C327       Br342   1.946       .  S
C328        C331   1.532       .  S
C328        C329   1.429       .  A
C329        C330   1.414       .  A
C329       Br337   1.924       .  S
C330       Br341   1.932       .  S
C331        C332   1.408       .  A
C331        C336   1.390       .  A
C332        C333   1.421       .  A
C332       Br343   1.851       .  S
C333        C334   1.417       .  A
C333       Br339   1.895       .  S
C334        C335   1.437       .  A
C335        C336   1.394       .  A
C335       Br344   1.915       .  S
C336       Br340   1.875       .  S
C345        C346   1.434       .  A
C345        C350   1.446       .  A
C346        C347   1.432       .  A
C346       Br358   1.905       .  S
C347        C348   1.417       .  A
C347       Br362   1.932       .  S
C348        C351   1.532       .  S
C348        C349   1.413       .  A
C349        C350   1.426       .  A
C349       Br357   1.930       .  S
C350       Br361   1.936       .  S
C351        C352   1.410       .  A
C351        C356   1.389       .  A
C352        C353   1.422       .  A
C352       Br363   1.865   1_545  S
C353        C354   1.422       .  A
C353       Br359   1.900   1_545  S
C354        C355   1.439       .  A
C355        C356   1.415       .  A
C355       Br364   1.910       .  S
C356       Br360   1.921       .  S
C365        C366   1.438       .  A
C365        C370   1.447       .  A
C366        C367   1.433       .  A
C366       Br378   1.929       .  S
C367        C368   1.421       .  A
C367       Br382   1.930       .  S
C368        C371   1.532       .  S
C368        C369   1.423       .  A
C369        C370   1.399       .  A
C369       Br377   1.952       .  S
C370       Br381   1.945       .  S
C371        C372   1.395       .  A
C371        C376   1.422       .  A
C372        C373   1.429       .  A
C372       Br383   1.938       .  S
C373        C374   1.455       .  A
C373       Br379   1.908       .  S
C374        C375   1.418       .  A
C375        C376   1.421       .  A
C375       Br384   1.919       .  S
C376       Br380   1.910       .  S
C385        C386   1.408       .  A
C385        C390   1.442       .  A
C386        C387   1.415       .  A
C386       Br398   1.915       .  S
C387        C388   1.386       .  A
C387       Br402   1.937       .  S
C388        C391   1.539       .  S
C388        C389   1.450       .  A
C389        C390   1.446       .  A
C389       Br397   1.871       .  S
C390       Br401   1.880       .  S
C391        C392   1.425       .  A
C391        C396   1.424       .  A
C392        C393   1.420       .  A
C392       Br403   1.918       .  S
C393        C394   1.422       .  A
C393       Br399   1.936       .  S
C394        C395   1.438       .  A
C395        C396   1.436       .  A
C395       Br404   1.941       .  S
C396       Br400   1.925       .  S
C405        C406   1.425       .  A
C405        C410   1.417       .  A
C406        C407   1.432       .  A
C406       Br418   1.937       .  S
C407        C408   1.422       .  A
C407       Br422   1.932       .  S
C408        C411   1.531       .  S
C408        C409   1.419       .  A
C409        C410   1.412       .  A
C409       Br417   1.922       .  S
C410       Br421   1.929       .  S
C411        C412   1.405       .  A
C411        C416   1.388       .  A
C412        C413   1.443       .  A
C412       Br423   1.931       .  S
C413        C414   1.467       .  A
C413       Br419   1.921       .  S
C414        C415   1.435       .  A
C415        C416   1.403       .  A
C415       Br424   1.910       .  S
C416       Br420   1.887       .  S
C425        C426   1.409       .  A
C425        C430   1.429       .  A
C426        C427   1.422       .  A
C426       Br438   1.930       .  S
C427        C428   1.430       .  A
C427       Br442   1.931       .  S
C428        C431   1.539       .  S
C428        C429   1.435       .  A
C429        C430   1.424       .  A
C429       Br437   1.935       .  S
C430       Br441   1.941       .  S
C431        C432   1.395       .  A
C431        C436   1.427       .  A
C432        C433   1.387       .  A
C432       Br443   1.893       .  S
C433        C434   1.408       .  A
C433       Br439   1.912       .  S
C434        C435   1.448       .  A
C435        C436   1.451       .  A
C435       Br444   1.920       .  S
C436       Br440   1.869       .  S
C445        C446   1.418       .  A
C445        C450   1.447       .  A
C446        C447   1.425       .  A
C446       Br458   1.931       .  S
C447        C448   1.410       .  A
C447       Br462   1.860       .  S
C448        C451   1.521       .  S
C448        C449   1.394       .  A
C449        C450   1.402       .  A
C449       Br457   1.928       .  S
C450       Br461   1.937       .  S
C451        C452   1.417       .  A
C451        C456   1.414       .  A
C452        C453   1.411       .  A
C452       Br463   1.934       .  S
C453        C454   1.428       .  A
C453       Br459   1.921       .  S
C454        C455   1.437       .  A
C455        C456   1.427       .  A
C455       Br464   1.923       .  S
C456       Br460   1.933       .  S
C465        C466   1.434       .  A
C465        C470   1.431       .  A
C466        C467   1.397       .  A
C466       Br478   1.913       .  S
C467        C468   1.394       .  A
C467       Br482   1.875       .  S
C468        C471   1.561       .  S
C468        C469   1.429       .  A
C469        C470   1.441       .  A
C469       Br477   1.887       .  S
C470       Br481   1.923       .  S
C471        C472   1.423       .  A
C471        C476   1.415       .  A
C472        C473   1.442       .  A
C472       Br483   1.921       .  S
C473        C474   1.436       .  A
C473       Br479   1.919       .  S
C474        C475   1.438       .  A
C475        C476   1.434       .  A
C475       Br484   1.918       .  S
C476       Br480   1.914       .  S
C485        C486   1.425       .  A
C485        C490   1.426       .  A
C486        C487   1.439       .  A
C486       Br498   1.922       .  S
C487        C488   1.440       .  A
C487       Br502   1.933       .  S
C488        C491   1.559       .  S
C488        C489   1.420       .  A
C489        C490   1.417       .  A
C489       Br497   1.915       .  S
C490       Br501   1.925       .  S
C491        C492   1.444       .  A
C491        C496   1.422       .  A
C492        C493   1.426       .  A
C492       Br503   1.881       .  S
C493        C494   1.392       .  A
C493       Br499   1.939       .  S
C494        C495   1.424       .  A
C495        C496   1.411       .  A
C495       Br504   1.929       .  S
C496       Br500   1.907       .  S
C505        C506   1.448       .  A
C505        C510   1.457       .  A
C506        C507   1.404       .  A
C506       Br518   1.936       .  S
C507        C508   1.383       .  A
C507       Br522   1.893       .  S
C508        C511   1.516       .  S
C508        C509   1.401       .  A
C509        C510   1.433       .  A
C509       Br517   1.932       .  S
C510       Br521   1.907       .  S
C511        C512   1.413       .  A
C511        C516   1.414       .  A
C512        C513   1.425       .  A
C512       Br523   1.932       .  S
C513        C514   1.431       .  A
C513       Br519   1.918       .  S
C514        C515   1.405       .  A
C515        C516   1.406       .  A
C515       Br524   1.895       .  S
C516       Br520   1.915       .  S
C525        C526   1.430       .  A
C525        C530   1.440       .  A
C526        C527   1.422       .  A
C526       Br538   1.912       .  S
C527        C528   1.415       .  A
C527       Br542   1.890       .  S
C528        C531   1.560       .  S
C528        C529   1.425       .  A
C529        C530   1.413       .  A
C529       Br537   1.905       .  S
C530       Br541   1.947       .  S
C531        C532   1.433       .  A
C531        C536   1.456       .  A
C532        C533   1.423       .  A
C532       Br543   1.935       .  S
C533        C534   1.422       .  A
C533       Br539   1.925       .  S
C534        C535   1.394       .  A
C535        C536   1.420       .  A
C535       Br544   1.942       .  S
C536       Br540   1.915       .  S
C545        C546   1.417       .  A
C545        C550   1.426       .  A
C546        C547   1.413       .  A
C546       Br558   1.920       .  S
C547        C548   1.436       .  A
C547       Br562   1.930       .  S
C548        C551   1.549       .  S
C548        C549   1.433       .  A
C549        C550   1.429       .  A
C549       Br557   1.925       .  S
C550       Br561   1.931       .  S
C551        C552   1.392       .  A
C551        C556   1.428       .  A
C552        C553   1.398       .  A
C552       Br563   1.886       .  S
C553        C554   1.423       .  A
C553       Br559   1.857       .  S
C554        C555   1.439       .  A
C555        C556   1.441       .  A
C555       Br564   1.909       .  S
C556       Br560   1.864       .  S
C565        C566   1.427       .  A
C565        C570   1.441       .  A
C566        C567   1.424       .  A
C566       Br578   1.926       .  S
C567        C568   1.422       .  A
C567       Br582   1.895       .  S
C568        C571   1.538       .  S
C568        C569   1.394       .  A
C569        C570   1.402       .  A
C569       Br577   1.884       .  S
C570       Br581   1.939       .  S
C571        C572   1.410       .  A
C571        C576   1.423       .  A
C572        C573   1.425       .  A
C572       Br583   1.929       .  S
C573        C574   1.428       .  A
C573       Br579   1.925       .  S
C574        C575   1.431       .  A
C575        C576   1.437       .  A
C575       Br584   1.940       .  S
C576       Br580   1.916       .  S
C585        C586   1.377       .  A
C585        C590   1.430       .  A
C586        C587   1.409       .  A
C586       Br598   1.898       .  S
C587        C588   1.435       .  A
C587       Br602   1.901       .  S
C588        C591   1.541       .  S
C588        C589   1.426       .  A
C589        C590   1.430       .  A
C589       Br597   1.931       .  S
C590       Br601   1.911       .  S
C591        C592   1.410       .  A
C591        C596   1.425       .  A
C592        C593   1.411       .  A
C592       Br603   1.902       .  S
C593        C594   1.431       .  A
C593       Br599   1.946       .  S
C594        C595   1.429       .  A
C595        C596   1.427       .  A
C595       Br604   1.936       .  S
C596       Br600   1.912       .  S
C605        C606   1.400       .  A
C605        C610   1.444       .  A
C606        C607   1.417       .  A
C606       Br618   1.907   1_455  S
C607        C608   1.422       .  A
C607       Br622   1.915       .  S
C608        C611   1.534       .  S
C608        C609   1.421       .  A
C609        C610   1.429       .  A
C609       Br617   1.938       .  S
C610       Br621   1.925       .  S
C611        C612   1.396       .  A
C611        C616   1.421       .  A
C612        C613   1.385       .  A
C612       Br623   1.882       .  S
C613        C614   1.434       .  A
C613       Br619   1.942       .  S
C614        C615   1.432       .  A
C615        C616   1.437       .  A
C615       Br624   1.924   1_455  S
C616       Br620   1.897   1_455  S
C625        C626   1.405       .  A
C625        C630   1.445       .  A
C626        C627   1.386       .  A
C626       Br638   1.881       .  S
C627        C628   1.402       .  A
C627       Br642   1.909       .  S
C628        C631   1.555       .  S
C628        C629   1.449       .  A
C629        C630   1.460       .  A
C629       Br637   1.903       .  S
C630       Br641   1.924       .  S
C631        C632   1.418       .  A
C631        C636   1.446       .  A
C632        C633   1.408       .  A
C632       Br643   1.927       .  S
C633        C634   1.431       .  A
C633       Br639   1.911       .  S
C634        C635   1.421       .  A
C635        C636   1.437       .  A
C635       Br644   1.924       .  S
C636       Br640   1.926       .  S
C645        C646   1.421       .  A
C645        C650   1.466       .  A
C646        C647   1.391       .  A
C646       Br658   1.938       .  S
C647        C648   1.384       .  A
C647       Br662   1.958       .  S
C648        C651   1.559       .  S
C648        C649   1.457       .  A
C649        C650   1.479       .  A
C649       Br657   1.895       .  S
C650       Br661   1.925       .  S
C651        C652   1.439       .  A
C651        C656   1.433       .  A
C652        C653   1.416       .  A
C652       Br663   1.945       .  S
C653        C654   1.426       .  A
C653       Br659   1.934       .  S
C654        C655   1.421       .  A
C655        C656   1.431       .  A
C655       Br664   1.921       .  S
C656       Br660   1.924       .  S
C665        C666   1.407       .  A
C665        C670   1.419       .  A
C666        C667   1.384       .  A
C666       Br678   1.892       .  S
C667        C668   1.405       .  A
C667       Br682   1.899       .  S
C668        C671   1.545       .  S
C668        C669   1.435       .  A
C669        C670   1.443       .  A
C669       Br677   1.902       .  S
C670       Br681   1.911       .  S
C671        C672   1.423       .  A
C671        C676   1.423       .  A
C672        C673   1.432       .  A
C672       Br683   1.934       .  S
C673        C674   1.439       .  A
C673       Br679   1.931       .  S
C674        C675   1.426       .  A
C675        C676   1.429       .  A
C675       Br684   1.922       .  S
C676       Br680   1.927       .  S
C685        C686   1.427       .  A
C685        C690   1.385       .  A
C686        C687   1.408       .  A
C686       Br698   1.915       .  S
C687        C688   1.422       .  A
C687       Br702   1.924       .  S
C688        C691   1.537       .  S
C688        C689   1.441       .  A
C689        C690   1.414       .  A
C689       Br697   1.929       .  S
C690       Br701   1.870   1_556  S
C691        C692   1.433       .  A
C691        C696   1.415       .  A
C692        C693   1.433       .  A
C692       Br703   1.922   1_556  S
C693        C694   1.418       .  A
C693       Br699   1.920       .  S
C694        C695   1.433       .  A
C695        C696   1.415       .  A
C695       Br704   1.923       .  S
C696       Br700   1.916       .  S
C705        C706   1.433       .  A
C705        C710   1.432       .  A
C706        C707   1.421       .  A
C706       Br718   1.903       .  S
C707        C708   1.396       .  A
C707       Br722   1.884       .  S
C708        C711   1.503       .  S
C708        C709   1.369       .  A
C709        C710   1.382       .  A
C709       Br717   1.883       .  S
C710       Br721   1.891       .  S
C711        C712   1.408       .  A
C711        C716   1.407       .  A
C712        C713   1.417       .  A
C712       Br723   1.935       .  S
C713        C714   1.426       .  A
C713       Br719   1.921       .  S
C714        C715   1.425       .  A
C715        C716   1.416       .  A
C715       Br724   1.924       .  S
C716       Br720   1.923       .  S
C725        C726   1.413       .  A
C725        C730   1.437       .  A
C726        C727   1.432       .  A
C726       Br738   1.894   1_545  S
C727        C728   1.419       .  A
C727       Br742   1.914       .  S
C728        C731   1.566       .  S
C728        C729   1.418       .  A
C729        C730   1.441       .  A
C729       Br737   1.908       .  S
C730       Br741   1.918       .  S
C731        C732   1.406       .  A
C731        C736   1.432       .  A
C732        C733   1.418       .  A
C732       Br743   1.906       .  S
C733        C734   1.427       .  A
C733       Br739   1.924       .  S
C734        C735   1.415       .  A
C735        C736   1.440       .  A
C735       Br744   1.909   1_545  S
C736       Br740   1.914       .  S
C745        C746   1.431       .  A
C745        C750   1.432       .  A
C746        C747   1.396       .  A
C746       Br758   1.886       .  S
C747        C748   1.388       .  A
C747       Br762   1.900       .  S
C748        C751   1.545       .  S
C748        C749   1.431       .  A
C749        C750   1.439       .  A
C749       Br757   1.893       .  S
C750       Br761   1.933       .  S
C751        C752   1.446       .  A
C751        C756   1.422       .  A
C752        C753   1.427       .  A
C752       Br763   1.941       .  S
C753        C754   1.398       .  A
C753       Br759   1.934       .  S
C754        C755   1.430       .  A
C755        C756   1.412       .  A
C755       Br764   1.944       .  S
C756       Br760   1.912       .  S
C765        C766   1.432       .  A
C765        C770   1.429       .  A
C766        C767   1.427       .  A
C766       Br778   1.930       .  S
C767        C768   1.412       .  A
C767       Br782   1.927       .  S
C768        C771   1.502       .  S
C768        C769   1.403       .  A
C769        C770   1.397       .  A
C769       Br777   1.934       .  S
C770       Br781   1.932       .  S
C771        C772   1.403       .  A
C771        C776   1.377       .  A
C772        C773   1.421       .  A
C772       Br783   1.879       .  S
C773        C774   1.428       .  A
C773       Br779   1.921       .  S
C774        C775   1.450       .  A
C775        C776   1.403       .  A
C775       Br784   1.906       .  S
C776       Br780   1.929       .  S
C785        C786   1.410       .  A
C785        C790   1.435       .  A
C786        C787   1.424       .  A
C786       Br798   1.921       .  S
C787        C788   1.444       .  A
C787       Br802   1.916       .  S
C788        C791   1.589       .  S
C788        C789   1.444       .  A
C789        C790   1.442       .  A
C789       Br797   1.934       .  S
C790       Br801   1.934       .  S
C791        C792   1.448       .  A
C791        C796   1.442       .  A
C792        C793   1.449       .  A
C792       Br803   1.928       .  S
C793        C794   1.411       .  A
C793       Br799   1.950       .  S
C794        C795   1.409       .  A
C795        C796   1.419       .  A
C795       Br804   1.914       .  S
C796       Br800   1.910       .  S
C805        C806   1.438       .  A
C805        C810   1.437       .  A
C806        C807   1.434       .  A
C806       Br818   1.928   1_556  S
C807        C808   1.411       .  A
C807       Br822   1.903   1_556  S
C808        C811   1.521       .  S
C808        C809   1.367       .  A
C809        C810   1.387       .  A
C809       Br817   1.893       .  S
C810       Br821   1.921       .  S
C811        C812   1.409       .  A
C811        C816   1.435       .  A
C812        C813   1.415       .  A
C812       Br823   1.920       .  S
C813        C814   1.420       .  A
C813       Br819   1.913       .  S
C814        C815   1.429       .  A
C815        C816   1.424       .  A
C815       Br824   1.955       .  S
C816       Br820   1.924       .  S
C825        C826   1.442       .  A
C825        C830   1.447       .  A
C826        C827   1.394       .  A
C826       Br838   1.913       .  S
C827        C828   1.365       .  A
C827       Br842   1.884       .  S
C828        C831   1.511       .  S
C828        C829   1.389       .  A
C829        C830   1.423       .  A
C829       Br837   1.861       .  S
C830       Br841   1.936       .  S
C831        C832   1.403       .  A
C831        C836   1.403       .  A
C832        C833   1.425       .  A
C832       Br843   1.930       .  S
C833        C834   1.445       .  A
C833       Br839   1.920       .  S
C834        C835   1.444       .  A
C835        C836   1.421       .  A
C835       Br844   1.924       .  S
C836       Br840   1.937       .  S
C845        C846   1.428       .  A
C845        C850   1.440       .  A
C846        C847   1.429       .  A
C846       Br858   1.927       .  S
C847        C848   1.418       .  A
C847       Br862   1.890       .  S
C848        C851   1.546       .  S
C848        C849   1.388       .  A
C849        C850   1.395       .  A
C849       Br857   1.866       .  S
C850       Br861   1.950       .  S
C851        C852   1.418       .  A
C851        C856   1.420       .  A
C852        C853   1.419       .  A
C852       Br863   1.918       .  S
C853        C854   1.423       .  A
C853       Br859   1.911       .  S
C854        C855   1.435       .  A
C855        C856   1.436       .  A
C855       Br864   1.913       .  S
C856       Br860   1.921       .  S
C865        C866   1.430       .  A
C865        C870   1.420       .  A
C866        C867   1.439       .  A
C866       Br878   1.932   1_455  S
C867        C868   1.451       .  A
C867       Br882   1.901   1_455  S
C868        C871   1.564       .  S
C868        C869   1.399       .  A
C869        C870   1.399       .  A
C869       Br877   1.900       .  S
C870       Br881   1.881       .  S
C871        C872   1.455       .  A
C871        C876   1.429       .  A
C872        C873   1.420       .  A
C872       Br883   1.911   1_455  S
C873        C874   1.391       .  A
C873       Br879   1.932   1_455  S
C874        C875   1.430       .  A
C875        C876   1.432       .  A
C875       Br884   1.917       .  S
C876       Br880   1.924       .  S
C885        C886   1.443       .  A
C885        C890   1.423       .  A
C886        C887   1.410       .  A
C886       Br898   1.929       .  S
C887        C888   1.410       .  A
C887       Br902   1.906       .  S
C888        C891   1.549       .  S
C888        C889   1.441       .  A
C889        C890   1.437       .  A
C889       Br897   1.941       .  S
C890       Br901   1.914       .  S
C891        C892   1.407       .  A
C891        C896   1.463       .  A
C892        C893   1.387       .  A
C892       Br903   1.907       .  S
C893        C894   1.384       .  A
C893       Br899   1.893       .  S
C894        C895   1.431       .  A
C895        C896   1.443       .  A
C895       Br904   1.932       .  S
C896       Br900   1.929       .  S
C905        C906   1.431       .  A
C905        C910   1.391       .  A
C906        C907   1.425       .  A
C906       Br918   1.928       .  S
C907        C908   1.433       .  A
C907       Br922   1.925       .  S
C908        C911   1.580       .  S
C908        C909   1.463       .  A
C909        C910   1.426       .  A
C909       Br917   1.932       .  S
C910       Br921   1.920       .  S
C911        C912   1.444       .  A
C911        C916   1.425       .  A
C912        C913   1.446       .  A
C912       Br923   1.919       .  S
C913        C914   1.421       .  A
C913       Br919   1.929       .  S
C914        C915   1.432       .  A
C915        C916   1.422       .  A
C915       Br924   1.932       .  S
C916       Br920   1.902       .  S
C925        C926   1.427       .  A
C925        C930   1.442       .  A
C926        C927   1.384       .  A
C926       Br938   1.892       .  S
C927        C928   1.378       .  A
C927       Br942   1.884       .  S
C928        C931   1.541       .  S
C928        C929   1.420       .  A
C929        C930   1.444       .  A
C929       Br937   1.897       .  S
C930       Br941   1.935       .  S
C931        C932   1.419       .  A
C931        C936   1.417       .  A
C932        C933   1.430       .  A
C932       Br943   1.934       .  S
C933        C934   1.442       .  A
C933       Br939   1.935       .  S
C934        C935   1.433       .  A
C935        C936   1.435       .  A
C935       Br944   1.918       .  S
C936       Br940   1.923       .  S
C945        C946   1.432       .  A
C945        C950   1.426       .  A
C946        C947   1.387       .  A
C946       Br958   1.892       .  S
C947        C948   1.388       .  A
C947       Br962   1.915       .  S
C948        C951   1.519       .  S
C948        C949   1.421       .  A
C949        C950   1.425       .  A
C949       Br957   1.873       .  S
C950       Br961   1.931       .  S
C951        C952   1.411       .  A
C951        C956   1.413       .  A
C952        C953   1.417       .  A
C952       Br963   1.928       .  S
C953        C954   1.427       .  A
C953       Br959   1.914       .  S
C954        C955   1.444       .  A
C955        C956   1.423       .  A
C955       Br964   1.942       .  S
C956       Br960   1.937       .  S
C965        C966   1.443       .  A
C965        C970   1.439       .  A
C966        C967   1.454       .  A
C966       Br978   1.906       .  S
C967        C968   1.427       .  A
C967       Br982   1.918       .  S
C968        C971   1.560       .  S
C968        C969   1.403       .  A
C969        C970   1.409       .  A
C969       Br977   1.919       .  S
C970       Br981   1.905       .  S
C971        C972   1.428       .  A
C971        C976   1.433       .  A
C972        C973   1.424       .  A
C972       Br983   1.915       .  S
C973        C974   1.401       .  A
C973       Br979   1.911       .  S
C974        C975   1.431       .  A
C975        C976   1.442       .  A
C975       Br984   1.928       .  S
C976       Br980   1.925       .  S
C985        C986   1.424       .  A
C985        C990   1.401       .  A
C986        C987   1.427       .  A
C986       Br998   1.921       .  S
C987        C988   1.421       .  A
C987      Br1002   1.916       .  S
C988        C991   1.539       .  S
C988        C989   1.418       .  A
C989        C990   1.417       .  A
C989       Br997   1.892   1_556  S
C990      Br1001   1.920       .  S
C991        C992   1.434       .  A
C991        C996   1.395       .  A
C992        C993   1.460       .  A
C992      Br1003   1.948       .  S
C993        C994   1.463       .  A
C993       Br999   1.922       .  S
C994        C995   1.398       .  A
C995        C996   1.365       .  A
C995      Br1004   1.870       .  S
C996      Br1000   1.878       .  S
C1005      C1006   1.409       .  A
C1005      C1010   1.425       .  A
C1006      C1007   1.418       .  A
C1006     Br1018   1.933   1_455  S
C1007      C1008   1.428       .  A
C1007     Br1022   1.925       .  S
C1008      C1011   1.536       .  S
C1008      C1009   1.428       .  A
C1009      C1010   1.418       .  A
C1009     Br1017   1.947       .  S
C1010     Br1021   1.917       .  S
C1011      C1012   1.415       .  A
C1011      C1016   1.405       .  A
C1012      C1013   1.427       .  A
C1012     Br1023   1.885   1_455  S
C1013      C1014   1.410       .  A
C1013     Br1019   1.908   1_455  S
C1014      C1015   1.431       .  A
C1015      C1016   1.428       .  A
C1015     Br1024   1.919       .  S
C1016     Br1020   1.931       .  S
C1025      C1026   1.404       .  A
C1025      C1030   1.430       .  A
C1026      C1027   1.407       .  A
C1026     Br1038   1.852       .  S
C1027      C1028   1.405       .  A
C1027     Br1042   1.915       .  S
C1028      C1031   1.518       .  S
C1028      C1029   1.421       .  A
C1029      C1030   1.431       .  A
C1029     Br1037   1.929       .  S
C1030     Br1041   1.917       .  S
C1031      C1032   1.411       .  A
C1031      C1036   1.362       .  A
C1032      C1033   1.435       .  A
C1032     Br1043   1.901       .  S
C1033      C1034   1.448       .  A
C1033     Br1039   1.933       .  S
C1034      C1035   1.437       .  A
C1035      C1036   1.382       .  A
C1035     Br1044   1.889       .  S
C1036     Br1040   1.891       .  S
C1045      C1046   1.409       .  A
C1045      C1050   1.439       .  A
C1046      C1047   1.413       .  A
C1046     Br1058   1.913       .  S
C1047      C1048   1.438       .  A
C1047     Br1062   1.921       .  S
C1048      C1051   1.574       .  S
C1048      C1049   1.444       .  A
C1049      C1050   1.439       .  A
C1049     Br1057   1.937       .  S
C1050     Br1061   1.936       .  S
C1051      C1052   1.405       .  A
C1051      C1056   1.435       .  A
C1052      C1053   1.414       .  A
C1052     Br1063   1.902       .  S
C1053      C1054   1.440       .  A
C1053     Br1059   1.887       .  S
C1054      C1055   1.443       .  A
C1055      C1056   1.438       .  A
C1055     Br1064   1.892       .  S
C1056     Br1060   1.921       .  S
C1065      C1066   1.448       .  A
C1065      C1070   1.430       .  A
C1066      C1067   1.436       .  A
C1066     Br1078   1.921   1_545  S
C1067      C1068   1.393       .  A
C1067     Br1082   1.874   1_545  S
C1068      C1071   1.513       .  S
C1068      C1069   1.361       .  A
C1069      C1070   1.382       .  A
C1069     Br1077   1.854       .  S
C1070     Br1081   1.905       .  S
C1071      C1072   1.403       .  A
C1071      C1076   1.408       .  A
C1072      C1073   1.407       .  A
C1072     Br1083   1.899       .  S
C1073      C1074   1.424       .  A
C1073     Br1079   1.925       .  S
C1074      C1075   1.426       .  A
C1075      C1076   1.424       .  A
C1075     Br1084   1.928       .  S
C1076     Br1080   1.922       .  S
C1085      C1086   1.434       .  A
C1085      C1090   1.402       .  A
C1086      C1087   1.426       .  A
C1086     Br1098   1.923       .  S
C1087      C1088   1.424       .  A
C1087     Br1102   1.928       .  S
C1088      C1091   1.541       .  S
C1088      C1089   1.438       .  A
C1089      C1090   1.411       .  A
C1089     Br1097   1.938       .  S
C1090     Br1101   1.905   1_455  S
C1091      C1092   1.448       .  A
C1091      C1096   1.403       .  A
C1092      C1093   1.440       .  A
C1092     Br1103   1.915   1_455  S
C1093      C1094   1.431       .  A
C1093     Br1099   1.939   1_455  S
C1094      C1095   1.423       .  A
C1095      C1096   1.386       .  A
C1095     Br1104   1.890       .  S
C1096     Br1100   1.910       .  S
C1105      C1106   1.402       .  A
C1105      C1110   1.437       .  A
C1106      C1107   1.434       .  A
C1106     Br1118   1.921       .  S
C1107      C1108   1.433       .  A
C1107     Br1122   1.895       .  S
C1108      C1111   1.552       .  S
C1108      C1109   1.414       .  A
C1109      C1110   1.417       .  A
C1109     Br1117   1.918       .  S
C1110     Br1121   1.927       .  S
C1111      C1112   1.425       .  A
C1111      C1116   1.394       .  A
C1112      C1113   1.458       .  A
C1112     Br1123   1.925       .  S
C1113      C1114   1.453       .  A
C1113     Br1119   1.909       .  S
C1114      C1115   1.408       .  A
C1115      C1116   1.405       .  A
C1115     Br1124   1.892       .  S
C1116     Br1120   1.895       .  S
C1125      C1126   1.445       .  A
C1125      C1130   1.418       .  A
C1126      C1127   1.403       .  A
C1126     Br1138   1.916       .  S
C1127      C1128   1.386       .  A
C1127     Br1142   1.900       .  S
C1128      C1131   1.516       .  S
C1128      C1129   1.397       .  A
C1129      C1130   1.417       .  A
C1129     Br1137   1.854   1_545  S
C1130     Br1141   1.895   1_545  S
C1131      C1132   1.411       .  A
C1131      C1136   1.411       .  A
C1132      C1133   1.418       .  A
C1132     Br1143   1.925       .  S
C1133      C1134   1.432       .  A
C1133     Br1139   1.927       .  S
C1134      C1135   1.415       .  A
C1135      C1136   1.416       .  A
C1135     Br1144   1.915       .  S
C1136     Br1140   1.917       .  S
C1145      C1146   1.432       .  A
C1145      C1150   1.428       .  A
C1146      C1147   1.441       .  A
C1146     Br1158   1.911       .  S
C1147      C1148   1.433       .  A
C1147     Br1162   1.910       .  S
C1148      C1151   1.571       .  S
C1148      C1149   1.421       .  A
C1149      C1150   1.416       .  A
C1149     Br1157   1.897       .  S
C1150     Br1161   1.932       .  S
C1151      C1152   1.430       .  A
C1151      C1156   1.457       .  A
C1152      C1153   1.408       .  A
C1152     Br1163   1.939       .  S
C1153      C1154   1.421       .  A
C1153     Br1159   1.930       .  S
C1154      C1155   1.417       .  A
C1155      C1156   1.438       .  A
C1155     Br1164   1.934       .  S
C1156     Br1160   1.915       .  S
C1165      C1166   1.435       .  A
C1165      C1170   1.422       .  A
C1166      C1167   1.384       .  A
C1166     Br1178   1.961       .  S
C1167      C1168   1.396       .  A
C1167     Br1182   1.862       .  S
C1168      C1171   1.523       .  S
C1168      C1169   1.409       .  A
C1169      C1170   1.426       .  A
C1169     Br1177   1.883       .  S
C1170     Br1181   1.909       .  S
C1171      C1172   1.412       .  A
C1171      C1176   1.420       .  A
C1172      C1173   1.406       .  A
C1172     Br1183   1.923       .  S
C1173      C1174   1.411       .  A
C1173     Br1179   1.914       .  S
C1174      C1175   1.431       .  A
C1175      C1176   1.439       .  A
C1175     Br1184   1.917       .  S
C1176     Br1180   1.934       .  S
C1185      C1186   1.381       .  A
C1185      C1190   1.427       .  A
C1186      C1187   1.421       .  A
C1186     Br1198   1.905       .  S
C1187      C1188   1.424       .  A
C1187     Br1202   1.863       .  S
C1188      C1191   1.538       .  S
C1188      C1189   1.417       .  A
C1189      C1190   1.408       .  A
C1189     Br1197   1.900       .  S
C1190     Br1201   1.922       .  S
C1191      C1192   1.434       .  A
C1191      C1196   1.425       .  A
C1192      C1193   1.437       .  A
C1192     Br1203   1.950       .  S
C1193      C1194   1.440       .  A
C1193     Br1199   1.911       .  S
C1194      C1195   1.409       .  A
C1195      C1196   1.400       .  A
C1195     Br1204   1.925       .  S
C1196     Br1200   1.913       .  S
