geometry optimzed in LAMMPS
_audit_creation_date              2020-11-30 
_audit_creation_method            'lammps2cif' 
_symmetry_space_group_name_H-M    'P1' 
_symmetry_Int_Tables_number       1 
_symmetry_cell_setting            triclinic 
loop_ 
_symmetry_equiv_pos_as_xyz 
  x,y,z 
_cell_length_a                    36.93352858 
_cell_length_b                    36.88747459028472 
_cell_length_c                    51.509799148985735 
_cell_angle_alpha                 89.80339719220825 
_cell_angle_beta                  90.18326086037793 
_cell_angle_gamma                 120.03764040254184 
loop_ 
_atom_site_label 
_atom_site_type_symbol 
_atom_site_fract_x 
_atom_site_fract_y 
_atom_site_fract_z 
_atom_site_charge 
C1          C  0.27542364  0.22971806  0.06012872     0.79700
N2          N  0.24686265  0.19508833  0.07317945    -0.78600
C3          C  0.25286280  0.18945250  0.09854670     0.82200
N4          N  0.28793880  0.21845164  0.11091963    -0.78500
C5          C  0.31657371  0.25333947  0.09816195     0.82300
N6          N  0.31033607  0.25871496  0.07277988    -0.80300
C7          C  0.24328247  0.25868523  0.86919989     0.79700
N8          N  0.20788838  0.23052045  0.85659048    -0.78600
C9          C  0.20098462  0.23726288  0.83158670     0.82200
N10         N  0.22943080  0.27261682  0.81917783    -0.78500
C11         C  0.26493213  0.30091431  0.83148264     0.82300
N12         N  0.27161992  0.29396887  0.85649637    -0.80300
O13         O  0.30794831  0.28042235  0.49646452    -0.72300
O14         O  0.20087318  0.24204162  0.46635916    -0.72500
O15         O  0.23570697  0.20818766  0.49686085    -0.72400
O16         O  0.27310727  0.31458551  0.46636623    -0.72400
O17         O  0.29221087  0.29491240  0.43178231    -0.72300
O18         O  0.25546774  0.18831484  0.46265820    -0.72400
O19         O  0.22023606  0.22185765  0.43212084    -0.72300
O20         O  0.32748221  0.26106784  0.46192935    -0.72500
V21         V  0.25478038  0.26092766  0.48081990     1.35200
V22         V  0.27346398  0.24193164  0.44776953     1.35200
C23         C  0.33553515  0.27630706  0.48452452     0.76900
C24         C  0.19262208  0.22602415  0.44392333     0.77000
C25         C  0.24018641  0.18057678  0.48530234     0.76900
C26         C  0.28825055  0.32260923  0.44376513     0.76800
O27         O  0.13325606  0.44146741  0.83011637    -0.72300
O28         O  0.02666296  0.40381262  0.79957097    -0.72500
O29         O  0.06089693  0.36922798  0.82988385    -0.72400
O30         O  0.09906304  0.47615957  0.79961661    -0.72400
O31         O  0.11865005  0.45655636  0.76521676    -0.72300
O32         O  0.08045451  0.34954551  0.79550388    -0.72400
O33         O  0.04627824  0.38429357  0.76514813    -0.72300
O34         O  0.15298101  0.42195494  0.79574651    -0.72500
V35         V  0.08036775  0.42230676  0.81411236     1.35200
V36         V  0.09924228  0.40348209  0.78107402     1.35200
C37         C  0.16085351  0.43711517  0.81841401     0.76900
C38         C  0.01865420  0.38846460  0.77698620     0.77000
C39         C  0.06501428  0.34154886  0.81806716     0.76900
C40         C  0.11431763  0.48412890  0.77699803     0.76800
C41         C  0.27568845  0.52638241  0.06028054     0.79700
N42         N  0.31086853  0.03264502  0.07285755    -0.78600
C43         C  0.31743268  0.04469110  0.09814027     0.82200
N44         N  0.28872420  0.05065140  0.11092909    -0.78500
C45         C  0.25331796  0.04399342  0.09867663     0.82300
N46         N  0.24712245  0.03212235  0.07339700    -0.80300
C47         C  0.24069871  0.96388442  0.86974966     0.79700
N48         N  0.26932135  0.45784921  0.85686039    -0.78600
C49         C  0.26372104  0.44665965  0.83146832     0.82200
N50         N  0.22892873  0.44096278  0.81886205    -0.78500
C51         C  0.20024869  0.44723573  0.83140691     0.82300
N52         N  0.20618244  0.45855985  0.85684407    -0.80300
C53         C  0.98527036  0.23477880  0.06089384     0.79700
N54         N  0.97829327  0.19932648  0.07339535    -0.78600
C55         C  0.46472895  0.19204376  0.09834275     0.82200
N56         N  0.45754035  0.22015289  0.11082091    -0.78500
C57         C  0.46446862  0.25570163  0.09861355     0.82300
N58         N  0.97809653  0.26279996  0.07363793    -0.80300
C59         C  0.03716721  0.26186528  0.86937075     0.79700
N60         N  0.04299645  0.29641290  0.85630377    -0.78600
C61         C  0.05433101  0.30199067  0.83093519     0.82200
N62         N  0.06046537  0.27304995  0.81859372    -0.78500
C63         C  0.05445466  0.23822922  0.83140218     0.82300
N64         N  0.04305981  0.23290405  0.85676718    -0.80300
O65         O  0.47228026  0.10944518  0.16356434    -0.72300
O66         O  0.36539269  0.07099651  0.13331074    -0.72500
O67         O  0.40028299  0.03696704  0.16358205    -0.72400
O68         O  0.43765456  0.14369091  0.13325224    -0.72400
O69         O  0.45774489  0.12443467  0.09892491    -0.72300
O70         O  0.41938425  0.01716756  0.12905774    -0.72400
O71         O  0.38515269  0.05199400  0.09873267    -0.72300
O72         O  0.99189314  0.08961817  0.12927743    -0.72500
V73         V  0.41927571  0.08990548  0.14772984     1.35200
V74         V  0.43816330  0.07118581  0.11465327     1.35200
C75         C  0.99982553  0.10500482  0.15187467     0.76900
C76         C  0.35737215  0.05576006  0.11068847     0.77000
C77         C  0.40428718  0.00925632  0.15172006     0.76900
C78         C  0.45346488  0.15199291  0.11078973     0.76800
C79         C  0.10740311  0.40723066  0.39601309     0.79700
N80         N  0.14300975  0.43491532  0.40861084    -0.78600
C81         C  0.15056252  0.42717187  0.43322626     0.82200
N82         N  0.12257182  0.39105798  0.44520050    -0.78500
C83         C  0.08693145  0.36306025  0.43279604     0.82300
N84         N  0.07954782  0.37119617  0.40820898    -0.80300
C85         C  0.07530739  0.43121547  0.20497514     0.79700
N86         N  0.10528276  0.46456676  0.19167758    -0.78600
C87         C  0.10113100  0.46886367  0.16586645     0.82200
N88         N  0.06651106  0.43968750  0.15320299    -0.78500
C89         C  0.03659837  0.40585795  0.16616045     0.82300
N90         N  0.04087722  0.40191866  0.19208308    -0.80300
C91         C  0.10905871  0.19108267  0.39428485     0.79700
N92         N  0.14473673  0.19890557  0.40681612    -0.78600
C93         C  0.15255115  0.21427498  0.43138597     0.82200
N94         N  0.12476830  0.22237578  0.44340947    -0.78500
C95         C  0.08910453  0.21477611  0.43114077     0.82300
N96         N  0.08143258  0.19932331  0.40658529    -0.80300
C97         C  0.07865490  0.13080532  0.20356403     0.79700
N98         N  0.04445182  0.12575947  0.19043244    -0.78600
C99         C  0.03908629  0.11508294  0.16492180     0.82200
N100        N  0.06787157  0.10884458  0.15251448    -0.78500
C101        C  0.10233411  0.11412375  0.16534301     0.82300
N102        N  0.10746747  0.12485439  0.19084049    -0.80300
O103        O  0.12366296  0.08796876  0.13005085    -0.72300
O104        O  0.19229238  0.04995367  0.09982566    -0.72500
O105        O  0.12355664  0.01550894  0.13011978    -0.72400
O106        O  0.19223032  0.12221576  0.09970391    -0.72400
O107        O  0.23174906  0.14206903  0.13409456    -0.72300
O108        O  0.16294768  0.03526764  0.16456966    -0.72400
O109        O  0.23179308  0.06962121  0.13421788    -0.72300
O110        O  0.16308492  0.10757958  0.16447892    -0.72500
V111        V  0.15870945  0.06927948  0.11560340     1.35200
V112        V  0.19665101  0.08823615  0.14866539     1.35200
C113        C  0.13119987  0.10339485  0.15263227     0.76900
C114        C  0.22429920  0.05430847  0.11160869     0.77000
C115        C  0.13086460  0.00772828  0.15281568     0.76900
C116        C  0.22412798  0.14993958  0.11148039     0.76800
O117        O  0.00022280  0.20545260  0.49637492    -0.72300
O118        O  0.06659880  0.31383003  0.46726481    -0.72500
O119        O  0.99786683  0.27676484  0.49741468    -0.72400
O120        O  0.06867018  0.24231021  0.46609580    -0.72400
O121        O  0.02872632  0.22196245  0.43190220    -0.72300
O122        O  0.45916230  0.25832217  0.46268147    -0.72400
O123        O  0.02787559  0.29422235  0.43254025    -0.72300
O124        O  0.46020989  0.18630050  0.46221839    -0.72500
V125        V  0.03259333  0.25923438  0.48110397     1.35200
V126        V  0.49477269  0.24058320  0.44799874     1.35200
C127        C  0.46841509  0.17775570  0.48450402     0.76900
C128        C  0.05900510  0.32225439  0.44480005     0.77000
C129        C  0.46619643  0.27294437  0.48545089     0.76900
C130        C  0.06081308  0.22645851  0.44362390     0.76800
C131        C  0.41502488  0.30325711  0.53566608     0.79700
N132        N  0.38101689  0.29850210  0.52252198    -0.78600
C133        C  0.37493945  0.28643006  0.49730609     0.82200
N134        N  0.40302579  0.27881744  0.48513822    -0.78500
C135        C  0.43736502  0.28383491  0.49804170     0.82300
N136        N  0.44302788  0.29565508  0.52333944    -0.80300
C137        C  0.43805402  0.36038859  0.72622727     0.79700
N138        N  0.47279127  0.36613746  0.73898881    -0.78600
C139        C  0.47900257  0.37784288  0.76429166     0.82200
N140        N  0.45032991  0.38401372  0.77690579    -0.78500
C141        C  0.41530483  0.37792553  0.76441807     0.82300
N142        N  0.40949220  0.36655923  0.73903111    -0.80300
O143        O  0.35400628  0.38327646  0.76573583    -0.72300
O144        O  0.28552946  0.42138782  0.79595199    -0.72500
O145        O  0.35432109  0.45564214  0.76543385    -0.72400
O146        O  0.28552278  0.34891480  0.79626925    -0.72400
O147        O  0.32553332  0.36854508  0.83043043    -0.72300
O148        O  0.39334594  0.47573885  0.80002424    -0.72400
O149        O  0.32465049  0.44048133  0.83051025    -0.72300
O150        O  0.39401675  0.40369536  0.79990369    -0.72500
V151        V  0.32057280  0.40268936  0.78153712     1.35200
V152        V  0.35860956  0.42175279  0.81454904     1.35200
C153        C  0.38628315  0.38810400  0.77736974     0.76900
C154        C  0.29279345  0.43634933  0.81864218     0.77000
C155        C  0.38623979  0.48341395  0.77722421     0.76900
C156        C  0.29347894  0.34083189  0.81875118     0.76800
C157        C  0.42032766  0.09363987  0.53391267     0.79700
N158        N  0.38417779  0.06624773  0.52166332    -0.78600
C159        C  0.37605934  0.07403086  0.49719249     0.82200
N160        N  0.40416270  0.10970971  0.48491037    -0.78500
C161        C  0.44038859  0.13733441  0.49686893     0.82300
N162        N  0.44822164  0.12935810  0.52140846    -0.80300
C163        C  0.44204812  0.06160606  0.72539036     0.79700
N164        N  0.41222395  0.02736367  0.73823494    -0.78600
C165        C  0.41588763  0.02266600  0.76413930     0.82200
N166        N  0.44999126  0.05210157  0.77716948    -0.78500
C167        C  0.47967112  0.08658983  0.76457422     0.82300
N168        N  0.47562933  0.09102565  0.73876585    -0.80300
O169        O  0.39771483  0.34371149  0.16397542    -0.72300
O170        O  0.43687684  0.27581865  0.13379240    -0.72500
O171        O  0.47005971  0.34424382  0.16450658    -0.72400
O172        O  0.36406699  0.27502209  0.13350958    -0.72400
O173        O  0.38378530  0.31460487  0.09912121    -0.72300
O174        O  0.99007160  0.38395554  0.13017294    -0.72400
O175        O  0.45663354  0.31564792  0.09951245    -0.72300
O176        O  0.41747454  0.38327652  0.12957676    -0.72500
V177        V  0.41753488  0.31041150  0.14825116     1.35200
V178        V  0.43658483  0.34858454  0.11526352     1.35200
C179        C  0.40214519  0.37578429  0.15215750     0.76900
C180        C  0.45273893  0.28383130  0.11130760     0.77000
C181        C  0.99763663  0.37648564  0.15292275     0.76900
C182        C  0.35616681  0.28251930  0.11088819     0.76800
C183        C  0.31959621  0.40515960  0.39393925     0.79700
N184        N  0.31295866  0.36993407  0.40651739    -0.78600
C185        C  0.29905858  0.36249948  0.43134476     0.82200
N186        N  0.29131157  0.39033449  0.44370911    -0.78500
C187        C  0.29788331  0.42571081  0.43140905     0.82300
N188        N  0.31177329  0.43290736  0.40648890    -0.80300
C189        C  0.37682862  0.42982821  0.20315509     0.79700
N190        N  0.38173704  0.40033902  0.19043560    -0.78600
C191        C  0.39227727  0.40523801  0.16490657     0.82200
N192        N  0.39862038  0.44020475  0.15211475    -0.78500
C193        C  0.39347968  0.46965604  0.16459326     0.82300
N194        N  0.38282400  0.46441579  0.19006153    -0.80300
O195        O  0.25469484  0.05554816  0.46391908    -0.72300
O196        O  0.29057000  0.98603554  0.43255858    -0.72500
O197        O  0.21864866  0.48701461  0.43358790    -0.72400
O198        O  0.32660678  0.05448681  0.46292229    -0.72400
O199        O  0.30745945  0.51474527  0.49725085    -0.72300
O200        O  0.19936631  0.44746296  0.46798419    -0.72400
O201        O  0.27125367  0.44629257  0.46684397    -0.72300
O202        O  0.23560960  0.51614512  0.49839091    -0.72500
V203        V  0.27223469  0.02000454  0.44894380     1.35200
V204        V  0.25377874  0.48192816  0.48195665     1.35200
C205        C  0.23972413  0.04813366  0.48660371     0.76900
C206        C  0.28652980  0.45406660  0.44421366     0.77000
C207        C  0.19091434  0.45533244  0.44559350     0.76900
C208        C  0.33527026  0.04635944  0.48517974     0.76800
C209        C  0.20984639  0.10018981  0.53661742     0.79700
N210        N  0.21701972  0.13531512  0.52364668    -0.78600
C211        C  0.22962788  0.14124877  0.49848761     0.82200
N212        N  0.23600189  0.11231878  0.48641904    -0.78500
C213        C  0.22906846  0.07716554  0.49918362     0.82300
N214        N  0.21597758  0.07115790  0.52427044    -0.80300
C215        C  0.14270204  0.06513310  0.72627881     0.79700
N216        N  0.13617075  0.02989777  0.73884092    -0.78600
C217        C  0.12469073  0.02370891  0.76420810     0.82200
N218        N  0.11871994  0.05244610  0.77691345    -0.78500
C219        C  0.12515136  0.08773579  0.76458528     0.82300
N220        N  0.13713023  0.09399053  0.73927620    -0.80300
O221        O  0.11894991  0.14861527  0.76598911    -0.72300
O222        O  0.08031485  0.21658243  0.79622803    -0.72500
O223        O  0.15290010  0.21695189  0.79653981    -0.72400
O224        O  0.04644298  0.14789899  0.76589236    -0.72400
O225        O  0.02638223  0.10871085  0.80045422    -0.72300
O226        O  0.13341406  0.17680654  0.83067802    -0.72400
O227        O  0.06136276  0.17750320  0.83083503    -0.72300
O228        O  0.09862418  0.10838273  0.80008689    -0.72500
V229        V  0.09925597  0.18176424  0.78185951     1.35200
V230        V  0.08031552  0.14362097  0.81485886     1.35200
C231        C  0.11442393  0.11639823  0.77758258     0.76900
C232        C  0.06519335  0.20923001  0.81886179     0.77000
C233        C  0.16104393  0.20888606  0.81896583     0.76900
C234        C  0.01870695  0.11598454  0.77771719     0.76800
C235        C  0.13409537  0.50461742  0.63951202    -0.18300
C236        C  0.14295402  0.50944926  0.61292908    -0.20500
C237        C  0.16565534  0.04964153  0.60191106     0.20100
C238        C  0.17925581  0.08525909  0.61781267    -0.03400
C239        C  0.17033969  0.08036921  0.64465515    -0.06500
C240        C  0.14777108  0.03986535  0.65552998     0.20400
C241        C  0.18410644  0.11597090  0.66059427     0.18600
C242        C  0.20679267  0.15609463  0.64957835    -0.18000
C243        C  0.21566561  0.16093893  0.62298343    -0.20200
C244        C  0.20198767  0.12575336  0.60694204     0.20100
C245        C  0.21097098  0.13033211  0.58028514    -0.33200
C246        C  0.19821189  0.09497613  0.56440946     0.00800
C247        C  0.17547955  0.05473719  0.57536844    -0.24500
C248        C  0.13947248  0.03524329  0.68225490    -0.30000
C249        C  0.15284320  0.07054433  0.69825260     0.06400
C250        C  0.17496581  0.11082496  0.68724731    -0.27800
H251        H  0.11661670  0.47329860  0.64755969     0.11200
H252        H  0.13220005  0.48179502  0.60099487     0.12300
H253        H  0.21771406  0.18374027  0.66153784     0.11400
H254        H  0.23331826  0.19225818  0.61496204     0.10600
H255        H  0.22882029  0.16147611  0.57201410     0.16000
H256        H  0.16547756  0.52730148  0.56323981     0.11900
H257        H  0.12216807  0.50403231  0.69058021     0.14800
H258        H  0.18542798  0.13814119  0.69947648     0.14500
C259        C  0.34357033  0.48167912  0.31090602    -0.18300
C260        C  0.35046737  0.48442977  0.28411253    -0.20500
C261        C  0.35609019  0.45413801  0.27123064     0.20100
C262        C  0.35518740  0.42099161  0.28548319    -0.03400
C263        C  0.34833622  0.41828126  0.31251733    -0.06500
C264        C  0.34223139  0.44862704  0.32525272     0.20400
C265        C  0.34712317  0.38495210  0.32672197     0.18600
C266        C  0.35325734  0.35494521  0.31390359    -0.18000
C267        C  0.36007173  0.35765067  0.28711501    -0.20200
C268        C  0.36086294  0.39039688  0.27272266     0.20100
C269        C  0.36727235  0.39308471  0.24581487    -0.33200
C270        C  0.36827363  0.42607748  0.23142564     0.00800
C271        C  0.36260887  0.45646214  0.24435241    -0.24500
C272        C  0.33415129  0.44497261  0.35200346    -0.29100
C273        C  0.33183374  0.41120468  0.36620082     0.06400
C274        C  0.33906333  0.38173227  0.35341682    -0.27800
H275        H  0.33899798  0.50527176  0.32038237     0.11200
H276        H  0.35119968  0.51014158  0.27344275     0.12300
H277        H  0.35247586  0.32920531  0.32456815     0.11400
H278        H  0.36453743  0.33399410  0.27762889     0.10600
H279        H  0.37184699  0.36961715  0.23615883     0.16000
H280        H  0.36340000  0.48210670  0.23355348     0.11900
H281        H  0.32874168  0.46794305  0.36159993     0.14800
H282        H  0.33760358  0.35567629  0.36409688     0.14500
C283        C  0.37064155  0.00863690  0.61400081    -0.18300
C284        C  0.37294573  0.00463282  0.64086881    -0.20500
C285        C  0.40550636  0.03660273  0.65527550     0.20100
C286        C  0.43656406  0.07259962  0.64240118    -0.03400
C287        C  0.43426326  0.07662797  0.61526216    -0.06500
C288        C  0.40087001  0.04468083  0.60107965     0.20400
C289        C  0.46485885  0.11295804  0.60243176     0.18600
C290        C  0.49798239  0.14449794  0.61676854    -0.18000
C291        C  0.50031935  0.14046579  0.64365655    -0.20200
C292        C  0.46954160  0.10484249  0.65666951     0.20100
C293        C  0.47098676  0.10108821  0.68370924    -0.33200
C294        C  0.43982103  0.06551446  0.69680022     0.00800
C295        C  0.40731815  0.03330868  0.68233085    -0.24500
C296        C  0.39759813  0.04975379  0.57435216    -0.29100
C297        C  0.42703760  0.08656088  0.56150399     0.06400
C298        C  0.46117134  0.11760860  0.57564456    -0.27800
H299        H  0.34543473  0.48338155  0.60332277     0.11200
H300        H  0.34954731  0.47628193  0.65038094     0.12300
H301        H  0.52181820  0.17254953  0.60723233     0.11400
H302        H  0.52596772  0.16542939  0.65431515     0.10600
H303        H  0.49639788  0.12605016  0.69452601     0.16000
H304        H  0.38333752  0.00557952  0.69207851     0.11900
H305        H  0.37134585  0.02540530  0.56372810     0.14800
H306        H  0.48420555  0.14603565  0.56602782     0.14500
C307        C  0.38043925  0.36348626  0.63996631    -0.18300
C308        C  0.37794148  0.35629332  0.61319918    -0.20500
C309        C  0.39993660  0.33857492  0.60178194     0.20100
C310        C  0.42482370  0.32814535  0.61744480    -0.03400
C311        C  0.42727927  0.33532006  0.64443141    -0.06500
C312        C  0.40492209  0.35300680  0.65574651     0.20400
C313        C  0.45222765  0.32491351  0.66005272     0.18600
C314        C  0.97417508  0.30716323  0.64865454    -0.18000
C315        C  0.97168206  0.29998277  0.62192389    -0.20200
C316        C  0.44724307  0.31049904  0.60616892     0.20100
C317        C  0.44465669  0.30340591  0.57936491    -0.33200
C318        C  0.41954810  0.31324315  0.56365920     0.00800
C319        C  0.39732944  0.33089776  0.57501652    -0.24500
C320        C  0.40773751  0.36020752  0.68259445    -0.29100
C321        C  0.43306100  0.35044942  0.69821136     0.06400
C322        C  0.45506642  0.33269340  0.68677402    -0.27800
H323        H  0.36322881  0.37725528  0.64832412     0.11200
H324        H  0.35877412  0.36456669  0.60142637     0.12300
H325        H  0.99337151  0.29891155  0.66041929     0.11400
H326        H  0.98892229  0.28624806  0.61356386     0.10600
H327        H  0.96153145  0.28938626  0.57083961     0.16000
H328        H  0.37796090  0.33865873  0.56303096     0.11900
H329        H  0.39096707  0.37426873  0.69121354     0.14800
H330        H  0.97449726  0.32492047  0.69869067     0.14500
C331        C  0.15725362  0.15635418  0.28581530    -0.18300
C332        C  0.16085022  0.16333688  0.31260292    -0.20500
C333        C  0.12910208  0.16516438  0.32639701     0.20100
C334        C  0.09303011  0.15919206  0.31315109    -0.03400
C335        C  0.08940443  0.15216115  0.28609238    -0.06500
C336        C  0.12181810  0.15103127  0.27236744     0.20400
C337        C  0.05358872  0.14671329  0.27276438     0.18600
C338        C  0.02146475  0.14772395  0.28665556    -0.18000
C339        C  0.02509812  0.15478450  0.31346241    -0.20200
C340        C  0.06092073  0.16094772  0.32684177     0.20100
C341        C  0.06562854  0.16983724  0.35352364    -0.33200
C342        C  0.10217998  0.17726937  0.36674477     0.00800
C343        C  0.13331719  0.17389382  0.35306493    -0.24500
C344        C  0.11832529  0.14465201  0.24544347    -0.29100
C345        C  0.08277926  0.13927203  0.23191453     0.06400
C346        C  0.05053947  0.14039550  0.24580353    -0.27800
H347        H  0.18234188  0.15540195  0.27557960     0.11200
H348        H  0.18872388  0.16777171  0.32249700     0.12300
H349        H  0.49363547  0.14336948  0.27675038     0.11400
H350        H  0.50007621  0.15587338  0.32368418     0.10600
H351        H  0.04122442  0.17198131  0.36380911     0.16000
H352        H  0.16153108  0.17928543  0.36296181     0.11900
H353        H  0.14333909  0.14374576  0.23507378     0.14800
H354        H  0.02284665  0.13604102  0.23571297     0.14500
C355        C  0.01329588  0.37265325  0.29095037    -0.18300
C356        C  0.01762714  0.36993716  0.31777979    -0.20500
C357        C  0.05663502  0.39429498  0.32983836     0.20100
C358        C  0.09139125  0.42243449  0.31481126    -0.03400
C359        C  0.08706007  0.42506564  0.28774364    -0.06500
C360        C  0.04793437  0.39969508  0.27571444     0.20400
C361        C  0.12205016  0.45260928  0.27269369     0.18600
C362        C  0.16081689  0.47773599  0.28481164    -0.18000
C363        C  0.16510785  0.47512946  0.31161165    -0.20200
C364        C  0.13069203  0.44735328  0.32672685     0.20100
C365        C  0.13519203  0.44337049  0.35343260    -0.33200
C366        C  0.10109451  0.41428277  0.36842316     0.00800
C367        C  0.06172594  0.39033204  0.35652375    -0.24500
C368        C  0.04424600  0.40154164  0.24866343    -0.29100
C369        C  0.07916220  0.42861357  0.23348628     0.06400
C370        C  0.11783526  0.45428916  0.24575680    -0.27800
H371        H  0.98295087  0.35321719  0.28207216     0.11200
H372        H  0.99054707  0.34837957  0.32905836     0.12300
H373        H  0.18794899  0.49913495  0.27351617     0.11400
H374        H  0.19547947  0.49449586  0.32047572     0.10600
H375        H  0.16569228  0.46193520  0.36232769     0.16000
H376        H  0.03516941  0.36809003  0.36793072     0.11900
H377        H  0.01416065  0.38205609  0.23948372     0.14800
H378        H  0.14493218  0.47537868  0.23431304     0.14500
C379        C  0.51896397  0.31794185  0.97971206    -0.18300
C380        C  0.52482832  0.32114440  0.95278995    -0.20500
C381        C  0.52351009  0.28801990  0.93865980     0.20100
C382        C  0.01663159  0.25150572  0.95180985    -0.03400
C383        C  0.01087352  0.24834360  0.97896238    -0.06500
C384        C  0.51174306  0.28159245  0.99295746     0.20400
C385        C  0.00382760  0.21172075  0.99203853     0.18600
C386        C  0.00290712  0.17877227  0.97796573    -0.18000
C387        C  0.00859095  0.18189746  0.95108325    -0.20200
C388        C  0.01535638  0.21804359  0.93784321     0.20100
C389        C  0.02111951  0.22133114  0.91090730    -0.33200
C390        C  0.02835114  0.25771613  0.89760803     0.00800
C391        C  0.52920428  0.29085742  0.91165710    -0.24500
C392        C  0.50463877  0.27758279  0.01984923    -0.29100
C393        C  0.99660761  0.24070150  0.03295726     0.06400
C394        C  0.99703042  0.20826731  0.01888549    -0.27800
H395        H  0.51982913  0.34381566  0.99015570     0.11200
H396        H  0.53024578  0.34947226  0.94300967     0.12300
H397        H  0.99751602  0.15044021  0.98773898     0.11400
H398        H  0.00762088  0.15597397  0.94062978     0.10600
H399        H  0.02035722  0.19557540  0.90035784     0.16000
H400        H  0.53493852  0.31916574  0.90169744     0.11900
H401        H  0.50462278  0.30290932  0.03044826     0.14800
H402        H  0.99095002  0.17970284  0.02866674     0.14500
C403        C  0.31282626  0.97591692  0.95308134    -0.18300
C404        C  0.31750200  0.98420686  0.97973108    -0.20500
C405        C  0.29140437  0.99573751  0.99264641     0.20100
C406        C  0.26021451  0.99885707  0.97857028    -0.03400
C407        C  0.25553273  0.99054877  0.95165840    -0.06500
C408        C  0.28201467  0.97908429  0.93888406     0.20400
C409        C  0.22452598  0.49396953  0.93750341     0.18600
C410        C  0.19850101  0.50561824  0.95040373    -0.18000
C411        C  0.20315394  0.51389966  0.97705986    -0.20200
C412        C  0.23387782  0.51061654  0.99127974     0.20100
C413        C  0.23870712  0.51885239  0.01800382    -0.33200
C414        C  0.26984621  0.51601066  0.03221950     0.00800
C415        C  0.29605285  0.00432412  0.01935001    -0.24500
C416        C  0.27721172  0.97089573  0.91215743    -0.29100
C417        C  0.24610307  0.97376586  0.89791088     0.06400
C418        C  0.21993713  0.48543482  0.91077901    -0.27800
H419        H  0.33336026  0.96706143  0.94356118     0.11200
H420        H  0.34157806  0.98162452  0.99024370     0.12300
H421        H  0.17450680  0.50831378  0.93987240     0.11400
H422        H  0.18268914  0.52285965  0.98656180     0.10600
H423        H  0.21848967  0.52802538  0.02762777     0.16000
H424        H  0.32017054  0.00204486  0.03004432     0.11900
H425        H  0.29753712  0.96185510  0.90253514     0.14800
H426        H  0.19592527  0.48783981  0.90005204     0.14500
C427        C  0.32859341  0.30637065  0.97735498    -0.18300
C428        C  0.32462506  0.30986978  0.95059772    -0.20500
C429        C  0.28946004  0.27921920  0.93722395     0.20100
C430        C  0.25811063  0.24452788  0.95090181    -0.03400
C431        C  0.26210161  0.24101565  0.97793007    -0.06500
C432        C  0.29746787  0.27217368  0.99119310     0.20400
C433        C  0.23068126  0.20645314  0.99166040     0.18600
C434        C  0.19566342  0.17561952  0.97824294    -0.18000
C435        C  0.19167028  0.17914500  0.95146021    -0.20200
C436        C  0.22263999  0.21353832  0.93763383     0.20100
C437        C  0.21848913  0.21776830  0.91086205    -0.33200
C438        C  0.24925596  0.25271934  0.89711556     0.00800
C439        C  0.28489889  0.28301884  0.91048567    -0.24500
C440        C  0.30121734  0.26859386  0.01803531    -0.29100
C441        C  0.27016012  0.23416844  0.03192770     0.06400
C442        C  0.23487536  0.20326185  0.01853075    -0.27800
H443        H  0.35599895  0.33051107  0.98724791     0.11200
H444        H  0.34898674  0.33668347  0.94037739     0.12300
H445        H  0.17129532  0.14882762  0.98847423     0.11400
H446        H  0.16423914  0.15504217  0.94157607     0.10600
H447        H  0.19088345  0.19412650  0.90086341     0.16000
H448        H  0.30889356  0.31004431  0.90020901     0.11900
H449        H  0.32861807  0.29256099  0.02803212     0.14800
H450        H  0.21074337  0.17650370  0.02892633     0.14500
C451        C  0.27542141  0.72988774  0.06016466     0.79700
N452        N  0.24685387  0.69525368  0.07321099    -0.78600
C453        C  0.25287475  0.68957157  0.09856714     0.82200
N454        N  0.28798460  0.71853072  0.11093257    -0.78500
C455        C  0.31663156  0.75342229  0.09817966     0.82300
N456        N  0.31036788  0.75884233  0.07280886    -0.80300
C457        C  0.24338872  0.75868626  0.86919107     0.79700
N458        N  0.20799053  0.73051407  0.85658604    -0.78600
C459        C  0.20107129  0.73725216  0.83158358     0.82200
N460        N  0.22950580  0.77260885  0.81917280    -0.78500
C461        C  0.26500941  0.80091433  0.83147161     0.82300
N462        N  0.27171333  0.79397361  0.85648382    -0.80300
O463        O  0.30791673  0.78035444  0.49646317    -0.72300
O464        O  0.20084232  0.74198613  0.46635710    -0.72500
O465        O  0.23566518  0.70812566  0.49685512    -0.72400
O466        O  0.27307775  0.81453002  0.46637499    -0.72400
O467        O  0.29216433  0.79486081  0.43178214    -0.72300
O468        O  0.25544175  0.68826085  0.46265583    -0.72400
O469        O  0.22019805  0.72178870  0.43212163    -0.72300
O470        O  0.32745393  0.76102124  0.46192027    -0.72500
V471        V  0.25474784  0.76086783  0.48081962     1.35200
V472        V  0.27343045  0.74187716  0.44776652     1.35200
C473        C  0.33550771  0.77625250  0.48451716     0.76900
C474        C  0.19258375  0.72595193  0.44392548     0.77000
C475        C  0.24014388  0.68051599  0.48529624     0.76900
C476        C  0.28820981  0.82255719  0.44377188     0.76800
O477        O  0.13322178  0.94144970  0.83011139    -0.72300
O478        O  0.02664903  0.90382304  0.79954493    -0.72500
O479        O  0.06086349  0.86921351  0.82985659    -0.72400
O480        O  0.09904821  0.97616585  0.79960712    -0.72400
O481        O  0.11864998  0.95657689  0.76520786    -0.72300
O482        O  0.08043893  0.84954692  0.79547788    -0.72400
O483        O  0.04627711  0.88431905  0.76512122    -0.72300
O484        O  0.15296493  0.92195573  0.79574172    -0.72500
V485        V  0.08034416  0.92230312  0.81409519     1.35200
V486        V  0.09923376  0.90349369  0.78105715     1.35200
C487        C  0.16082277  0.93709631  0.81841496     0.76900
C488        C  0.01865191  0.88849397  0.77695567     0.77000
C489        C  0.06499283  0.84154092  0.81803985     0.76900
C490        C  0.11430794  0.98414373  0.77698939     0.76800
C491        C  0.27566101  0.02621271  0.06033771     0.79700
N492        N  0.31088102  0.53279096  0.07280562    -0.78600
C493        C  0.31742814  0.54480994  0.09809098     0.82200
N494        N  0.28871658  0.55076435  0.11087971    -0.78500
C495        C  0.25332210  0.54412640  0.09862114     0.82300
N496        N  0.24714308  0.53228418  0.07333683    -0.80300
C497        C  0.24078276  0.46400372  0.86971962     0.79700
N498        N  0.26925126  0.95775527  0.85688472    -0.78600
C499        C  0.26367560  0.94661203  0.83148372     0.82200
N500        N  0.22889543  0.94093894  0.81887329    -0.78500
C501        C  0.20020330  0.94718985  0.83142093     0.82300
N502        N  0.20611086  0.95846515  0.85686777    -0.80300
C503        C  0.98534810  0.73479655  0.06088721     0.79700
N504        N  0.97836216  0.69933994  0.07338846    -0.78600
C505        C  0.46480475  0.69206244  0.09833781     0.82200
N506        N  0.45762838  0.72017704  0.11081664    -0.78500
C507        C  0.46456123  0.75572696  0.09861155     0.82300
N508        N  0.97818604  0.76282520  0.07363409    -0.80300
C509        C  0.03713790  0.76185798  0.86934746     0.79700
N510        N  0.04295946  0.79639823  0.85627464    -0.78600
C511        C  0.05432140  0.80198390  0.83091042     0.82200
N512        N  0.06049657  0.77305893  0.81858078    -0.78500
C513        C  0.05449741  0.73824617  0.83139669     0.82300
N514        N  0.04306940  0.73291260  0.85675572    -0.80300
O515        O  0.47217951  0.60935259  0.16356823    -0.72300
O516        O  0.36536094  0.57106462  0.13326935    -0.72500
O517        O  0.40013349  0.53692735  0.16354455    -0.72400
O518        O  0.43767555  0.64370294  0.13324153    -0.72400
O519        O  0.45775262  0.62442649  0.09891704    -0.72300
O520        O  0.41924620  0.51712424  0.12902660    -0.72400
O521        O  0.38511352  0.55203862  0.09869764    -0.72300
O522        O  0.99180044  0.58952713  0.12928393    -0.72500
V523        V  0.41921109  0.58989317  0.14770829     1.35200
V524        V  0.43809804  0.57116146  0.11463632     1.35200
C525        C  0.99971622  0.60488919  0.15188809     0.76900
C526        C  0.35734667  0.55583813  0.11064593     0.77000
C527        C  0.40411869  0.50920618  0.15168056     0.76900
C528        C  0.45350221  0.65200093  0.11078260     0.76800
C529        C  0.10731423  0.90731360  0.39610929     0.79700
N530        N  0.14292984  0.93498595  0.40870399    -0.78600
C531        C  0.15052456  0.92720071  0.43329916     0.82200
N532        N  0.12256328  0.89105254  0.44525594    -0.78500
C533        C  0.08691485  0.86306371  0.43285160     0.82300
N534        N  0.07949154  0.87124564  0.40828576    -0.80300
C535        C  0.07528116  0.93125339  0.20506765     0.79700
N536        N  0.10527225  0.96459564  0.19177076    -0.78600
C537        C  0.10116428  0.96885458  0.16594982     0.82200
N538        N  0.06657698  0.93965297  0.15327573    -0.78500
C539        C  0.03665052  0.90583383  0.16623004     0.82300
N540        N  0.04088002  0.90192878  0.19216400    -0.80300
C541        C  0.10894170  0.69086395  0.39432645     0.79700
N542        N  0.14464320  0.69872820  0.40684552    -0.78600
C543        C  0.15249826  0.71417109  0.43139806     0.82200
N544        N  0.12473420  0.72230365  0.44341566    -0.78500
C545        C  0.08905226  0.71467105  0.43115899     0.82300
N546        N  0.08133709  0.69914367  0.40662068    -0.80300
C547        C  0.07846246  0.63054781  0.20361185     0.79700
N548        N  0.04426730  0.62551493  0.19047687    -0.78600
C549        C  0.03895043  0.61492621  0.16495158     0.82200
N550        N  0.06777500  0.60876485  0.15253244    -0.78500
C551        C  0.10223168  0.61403700  0.16536334     0.82300
N552        N  0.10731757  0.62467757  0.19087567    -0.80300
O553        O  0.12363470  0.58802648  0.13003348    -0.72300
O554        O  0.19228842  0.55006981  0.09977669    -0.72500
O555        O  0.12352910  0.51557113  0.13005550    -0.72400
O556        O  0.19222773  0.62233308  0.09969916    -0.72400
O557        O  0.23171839  0.64214304  0.13410167    -0.72300
O558        O  0.16291580  0.53527673  0.16450709    -0.72400
O559        O  0.23177853  0.56970510  0.13417381    -0.72300
O560        O  0.16302558  0.60757013  0.16447529    -0.72500
V561        V  0.15869423  0.56936844  0.11556915     1.35200
V562        V  0.19661724  0.58827781  0.14863917     1.35200
C563        C  0.13114050  0.60338950  0.15263145     0.76900
C564        C  0.22429433  0.55441952  0.11155821     0.77000
C565        C  0.13083223  0.50775471  0.15274379     0.76900
C566        C  0.22411963  0.65004344  0.11148877     0.76800
O567        O  0.00018412  0.70540896  0.49638229    -0.72300
O568        O  0.06660272  0.81378201  0.46728768    -0.72500
O569        O  0.99785333  0.77672962  0.49741700    -0.72400
O570        O  0.06864175  0.74224014  0.46610983    -0.72400
O571        O  0.02871227  0.72191891  0.43190969    -0.72300
O572        O  0.45915933  0.75829244  0.46267888    -0.72400
O573        O  0.02788928  0.79420179  0.43255886    -0.72300
O574        O  0.46018644  0.68626402  0.46221864    -0.72500
V575        V  0.03257574  0.75918465  0.48111487     1.35200
V576        V  0.49476802  0.74055046  0.44800374     1.35200
C577        C  0.46837220  0.67772161  0.48451110     0.76900
C578        C  0.05900963  0.82222871  0.44482997     0.77000
C579        C  0.46618852  0.77291461  0.48544708     0.76900
C580        C  0.06078363  0.72638908  0.44363684     0.76800
C581        C  0.41504697  0.80329656  0.53563726     0.79700
N582        N  0.38102271  0.79850983  0.52249902    -0.78600
C583        C  0.37492232  0.78639164  0.49729204     0.82200
N584        N  0.40300348  0.77876560  0.48512803    -0.78500
C585        C  0.43735788  0.78381326  0.49802830     0.82300
N586        N  0.44304184  0.79567835  0.52331646    -0.80300
C587        C  0.43810442  0.86052748  0.72617555     0.79700
N588        N  0.47282445  0.86624218  0.73894282    -0.78600
C589        C  0.47901492  0.87790508  0.76425247     0.82200
N590        N  0.45033788  0.88406762  0.77686802    -0.78500
C591        C  0.41532782  0.87801030  0.76437464     0.82300
N592        N  0.40953583  0.86668628  0.73898026    -0.80300
O593        O  0.35400097  0.88331165  0.76571078    -0.72300
O594        O  0.28549750  0.92137297  0.79595372    -0.72500
O595        O  0.35427225  0.95565187  0.76541188    -0.72400
O596        O  0.28553958  0.84892040  0.79626361    -0.72400
O597        O  0.32557787  0.86857149  0.83041217    -0.72300
O598        O  0.39330951  0.97577387  0.79999654    -0.72400
O599        O  0.32463386  0.94047859  0.83050501    -0.72300
O600        O  0.39403655  0.90376174  0.79986716    -0.72500
V601        V  0.32055421  0.90269873  0.78152472     1.35200
V602        V  0.35861159  0.92178464  0.81452724     1.35200
C603        C  0.38629582  0.88816606  0.77733442     0.76900
C604        C  0.29276257  0.93632861  0.81864610     0.77000
C605        C  0.38619435  0.98343334  0.77719448     0.76900
C606        C  0.29352528  0.84084331  0.81873950     0.76800
C607        C  0.42020900  0.59370444  0.53397132     0.79700
N608        N  0.38406933  0.56628911  0.52172098    -0.78600
C609        C  0.37598251  0.57403258  0.49723057     0.82200
N610        N  0.40410455  0.60968524  0.48493210    -0.78500
C611        C  0.44032019  0.63732380  0.49689157     0.82300
N612        N  0.44811974  0.62939283  0.52144883    -0.80300
C613        C  0.44200873  0.56165661  0.72544559     0.79700
N614        N  0.41221858  0.52738929  0.73828532    -0.78600
C615        C  0.41592479  0.52265937  0.76417963     0.82200
N616        N  0.45004161  0.55208735  0.77720487    -0.78500
C617        C  0.47969477  0.58659950  0.76461308     0.82300
N618        N  0.47560599  0.59106874  0.73881440    -0.80300
O619        O  0.39780805  0.84371240  0.16400345    -0.72300
O620        O  0.43695437  0.77581842  0.13379539    -0.72500
O621        O  0.47012736  0.84420838  0.16454103    -0.72400
O622        O  0.36414824  0.77504098  0.13351529    -0.72400
O623        O  0.38388291  0.81465791  0.09914252    -0.72300
O624        O  0.99017569  0.88394138  0.13021686    -0.72400
O625        O  0.45672250  0.81566940  0.09952517    -0.72300
O626        O  0.41760830  0.88330938  0.12961897    -0.72500
V627        V  0.41761419  0.81040563  0.14826808     1.35200
V628        V  0.43668992  0.84860601  0.11529278     1.35200
C629        C  0.40227631  0.87581065  0.15219819     0.76900
C630        C  0.45282525  0.78384691  0.11131197     0.77000
C631        C  0.99771484  0.87645741  0.15297071     0.76900
C632        C  0.35624996  0.78256803  0.11090119     0.76800
C633        C  0.31955629  0.90512360  0.39395885     0.79700
N634        N  0.31291870  0.86989589  0.40653298    -0.78600
C635        C  0.29901172  0.86245168  0.43135822     0.82200
N636        N  0.29125933  0.89028277  0.44372597    -0.78500
C637        C  0.29783145  0.92566260  0.43142812     0.82300
N638        N  0.31172775  0.93286541  0.40650975    -0.80300
C639        C  0.37704613  0.92990553  0.20320835     0.79700
N640        N  0.38192990  0.90040156  0.19048787    -0.78600
C641        C  0.39245133  0.90528841  0.16495597     0.82200
N642        N  0.39880215  0.94025734  0.15216252    -0.78500
C643        C  0.39368533  0.96972213  0.16464236     0.82300
N644        N  0.38304560  0.96449293  0.19011312    -0.80300
O645        O  0.25463749  0.55550706  0.46390937    -0.72300
O646        O  0.29061051  0.48607719  0.43254780    -0.72500
O647        O  0.21862924  0.98702104  0.43362902    -0.72400
O648        O  0.32657074  0.55449224  0.46294225    -0.72400
O649        O  0.30751829  0.01477298  0.49724530    -0.72300
O650        O  0.19937528  0.94749585  0.46803655    -0.72400
O651        O  0.27124452  0.94628586  0.46686998    -0.72300
O652        O  0.23568750  0.01621470  0.49841282    -0.72500
V653        V  0.27222602  0.52000479  0.44893353     1.35200
V654        V  0.25381271  0.98195949  0.48198049     1.35200
C655        C  0.23964574  0.54806851  0.48658872     0.76900
C656        C  0.28649334  0.95403207  0.44423259     0.77000
C657        C  0.19089868  0.95535456  0.44564971     0.76900
C658        C  0.33521331  0.54635130  0.48520181     0.76800
C659        C  0.20973735  0.60010328  0.53660139     0.79700
N660        N  0.21692897  0.63523639  0.52363215    -0.78600
C661        C  0.22955913  0.64117955  0.49847733     0.82200
N662        N  0.23592944  0.61224894  0.48640958    -0.78500
C663        C  0.22897668  0.57708746  0.49917003     0.82300
N664        N  0.21587138  0.57107193  0.52425441    -0.80300
C665        C  0.14269256  0.56510246  0.72628300     0.79700
N666        N  0.13616943  0.52987196  0.73884729    -0.78600
C667        C  0.12470481  0.52369176  0.76421684     0.82200
N668        N  0.11874721  0.55243433  0.77692516    -0.78500
C669        C  0.12517385  0.58772047  0.76459639     0.82300
N670        N  0.13713145  0.59396458  0.73928338    -0.80300
O671        O  0.11898385  0.64860246  0.76600077    -0.72300
O672        O  0.08038767  0.71660032  0.79623736    -0.72500
O673        O  0.15296613  0.71694492  0.79654459    -0.72400
O674        O  0.04648299  0.64790186  0.76591486    -0.72400
O675        O  0.02643530  0.60872237  0.80048023    -0.72300
O676        O  0.13348194  0.67681510  0.83068954    -0.72400
O677        O  0.06143298  0.67753087  0.83084838    -0.72300
O678        O  0.09867290  0.60838427  0.80010512    -0.72500
V679        V  0.09930996  0.68176510  0.78187203     1.35200
V680        V  0.08037577  0.64363380  0.81487645     1.35200
C681        C  0.11445968  0.61638912  0.77759688     0.76900
C682        C  0.06526060  0.70925320  0.81886920     0.77000
C683        C  0.16111696  0.70888209  0.81897041     0.76900
C684        C  0.01874782  0.61599211  0.77774535     0.76800
C685        C  0.13388229  0.00468358  0.63947111    -0.18300
C686        C  0.14276187  0.00952475  0.61289093    -0.20500
C687        C  0.16568971  0.54956176  0.60192307     0.20100
C688        C  0.17914876  0.58518302  0.61780131    -0.03400
C689        C  0.17025469  0.58030365  0.64464674    -0.06500
C690        C  0.14784849  0.53980664  0.65554796     0.20400
C691        C  0.18388481  0.61591024  0.66056274     0.18600
C692        C  0.20640619  0.65602866  0.64952025    -0.18000
C693        C  0.21525662  0.66086251  0.62292279    -0.20200
C694        C  0.20172176  0.62567143  0.60690494     0.20100
C695        C  0.21069960  0.63024226  0.58024708    -0.33200
C696        C  0.19808887  0.59488613  0.56439390     0.00800
C697        C  0.17550150  0.55465189  0.57537844    -0.24500
C698        C  0.13957352  0.53519752  0.68227588    -0.30000
C699        C  0.15281186  0.57050302  0.69825210     0.06400
C700        C  0.17477562  0.61077502  0.68721959    -0.27800
H701        H  0.11627770  0.97335985  0.64749880     0.11200
H702        H  0.13189893  0.98187636  0.60093900     0.12300
H703        H  0.21721862  0.68367972  0.66146195     0.11400
H704        H  0.23278468  0.69217979  0.61488092     0.10600
H705        H  0.22843220  0.66138371  0.57196009     0.16000
H706        H  0.16534530  0.02739052  0.56321002     0.11900
H707        H  0.12194450  0.00407473  0.69054111     0.14800
H708        H  0.18513644  0.63809684  0.69942955     0.14500
C709        C  0.34350040  0.98162280  0.31092079    -0.18300
C710        C  0.35044787  0.98439488  0.28413277    -0.20500
C711        C  0.35616300  0.95415165  0.27126383     0.20100
C712        C  0.35529958  0.92103092  0.28552441    -0.03400
C713        C  0.34839861  0.91829942  0.31255307    -0.06500
C714        C  0.34220415  0.94859771  0.32527549     0.20400
C715        C  0.34722803  0.88499656  0.32676554     0.18600
C716        C  0.35345083  0.85503777  0.31396028    -0.18000
C717        C  0.36031314  0.85776184  0.28717704    -0.20200
C718        C  0.36106444  0.89048260  0.27277695     0.20100
C719        C  0.36751780  0.89318825  0.24587407    -0.33200
C720        C  0.36847575  0.92615182  0.23147637     0.00800
C721        C  0.36273026  0.95649558  0.24439038    -0.24500
C722        C  0.33408395  0.94492376  0.35202081    -0.29100
C723        C  0.33181566  0.91118481  0.36622562     0.06400
C724        C  0.33912659  0.88175817  0.35345432    -0.27800
H725        H  0.33885791  0.00517847  0.32038730     0.11200
H726        H  0.35114698  0.01008735  0.27345568     0.12300
H727        H  0.35270252  0.82931566  0.32463266     0.11400
H728        H  0.36484657  0.83414366  0.27770172     0.10600
H729        H  0.37215752  0.86975181  0.23622645     0.16000
H730        H  0.36348584  0.98211641  0.23358453     0.11900
H731        H  0.32860720  0.96786010  0.36160885     0.14800
H732        H  0.33770520  0.85572259  0.36414183     0.14500
C733        C  0.37100911  0.50840975  0.61398846    -0.18300
C734        C  0.37332235  0.50439067  0.64085671    -0.20500
C735        C  0.40564202  0.53654101  0.65530411     0.20100
C736        C  0.43645534  0.57274168  0.64247134    -0.03400
C737        C  0.43415004  0.57678263  0.61533391    -0.06500
C738        C  0.40099150  0.54464782  0.60110858     0.20400
C739        C  0.46450719  0.61330248  0.60254722     0.18600
C740        C  0.49739232  0.64503675  0.61692402    -0.18000
C741        C  0.49973051  0.64099513  0.64380918    -0.20200
C742        C  0.46919528  0.60516727  0.65677885     0.20100
C743        C  0.47065280  0.60138120  0.68381337    -0.33200
C744        C  0.43973391  0.56559842  0.69686338     0.00800
C745        C  0.40745862  0.53322073  0.68235850    -0.24500
C746        C  0.39770419  0.54971383  0.57437843    -0.29100
C747        C  0.42691536  0.58668419  0.56157339     0.06400
C748        C  0.46082281  0.61793278  0.57575991    -0.27800
H749        H  0.34487749  0.98375320  0.60336540     0.11200
H750        H  0.34897512  0.97668010  0.65042692     0.12300
H751        H  0.52103875  0.67323874  0.60742028     0.11400
H752        H  0.52519362  0.66610556  0.65449984     0.10600
H753        H  0.49588115  0.62648462  0.69466055     0.16000
H754        H  0.38367664  0.50532936  0.69207540     0.11900
H755        H  0.37163704  0.52521899  0.56371592     0.14800
H756        H  0.48367152  0.64649426  0.56617861     0.14500
C757        C  0.38062016  0.86376254  0.63989291    -0.18300
C758        C  0.37811907  0.85655156  0.61312822    -0.20500
C759        C  0.40006006  0.83876680  0.60172330     0.20100
C760        C  0.42490598  0.82829564  0.61739629    -0.03400
C761        C  0.42736538  0.83548729  0.64438008    -0.06500
C762        C  0.40505487  0.85323323  0.65568366     0.20400
C763        C  0.45226541  0.82502972  0.66001118     0.18600
C764        C  0.97416411  0.80721875  0.64862595    -0.18000
C765        C  0.97166830  0.80002183  0.62189830    -0.20200
C766        C  0.44727358  0.81058301  0.60613375     0.20100
C767        C  0.44467256  0.80346059  0.57933452    -0.33200
C768        C  0.41959777  0.81332990  0.56362073     0.00800
C769        C  0.39743554  0.83105655  0.57496205    -0.24500
C770        C  0.40786127  0.86043446  0.68253186    -0.29100
C771        C  0.43313066  0.85061502  0.69815773     0.06400
C772        C  0.45509664  0.83281040  0.68673068    -0.27800
H773        H  0.36344825  0.87757840  0.64824133     0.11200
H774        H  0.35898191  0.86486055  0.60134491     0.12300
H775        H  0.99332471  0.79892727  0.66040041     0.11400
H776        H  0.98886727  0.78623641  0.61354798     0.10600
H777        H  0.96150265  0.78938266  0.57081958     0.16000
H778        H  0.37809530  0.83884355  0.56296752     0.11900
H779        H  0.39112587  0.87453433  0.69114379     0.14800
H780        H  0.97448380  0.82499025  0.69865594     0.14500
C781        C  0.15711612  0.65617687  0.28584353    -0.18300
C782        C  0.16072603  0.66316166  0.31263112    -0.20500
C783        C  0.12894422  0.66490485  0.32644037     0.20100
C784        C  0.09282345  0.65883520  0.31321232    -0.03400
C785        C  0.08918400  0.65179956  0.28615341    -0.06500
C786        C  0.12163470  0.65076539  0.27241222     0.20400
C787        C  0.05332282  0.64626261  0.27284049     0.18600
C788        C  0.02116467  0.64717962  0.28674960    -0.18000
C789        C  0.02481085  0.65424657  0.31355674    -0.20200
C790        C  0.06068377  0.66050994  0.32691942     0.20100
C791        C  0.06541601  0.66943277  0.35359872    -0.33200
C792        C  0.10202171  0.67697673  0.36679900     0.00800
C793        C  0.13318190  0.67366021  0.35310527    -0.24500
C794        C  0.11813896  0.64440284  0.24548728    -0.29100
C795        C  0.08255624  0.63894891  0.23197075     0.06400
C796        C  0.05027097  0.63996244  0.24587638    -0.27800
H797        H  0.18223249  0.65529864  0.27559535     0.11200
H798        H  0.18863332  0.66767104  0.32251003     0.12300
H799        H  0.49330322  0.64275919  0.27685748     0.11400
H800        H  0.49976589  0.65527396  0.32379047     0.10600
H801        H  0.04099248  0.67152346  0.36389624     0.16000
H802        H  0.16143323  0.67913390  0.36298471     0.11900
H803        H  0.14318807  0.64358125  0.23510514     0.14800
H804        H  0.02254851  0.63554642  0.23579575     0.14500
C805        C  0.01319689  0.87277717  0.29105087    -0.18300
C806        C  0.01751791  0.87006831  0.31788321    -0.20500
C807        C  0.05652479  0.89442310  0.32994522     0.20100
C808        C  0.09128613  0.92255527  0.31491905    -0.03400
C809        C  0.08696506  0.92517648  0.28784943    -0.06500
C810        C  0.04784318  0.89980554  0.27581551     0.20400
C811        C  0.12196476  0.95270535  0.27280145     0.18600
C812        C  0.16072802  0.97783046  0.28492255    -0.18000
C813        C  0.16500958  0.97523567  0.31172378    -0.20200
C814        C  0.13058566  0.94747073  0.32683680     0.20100
C815        C  0.13508125  0.94348844  0.35354146    -0.33200
C816        C  0.10098543  0.91439857  0.36853009     0.00800
C817        C  0.06161376  0.89045728  0.35663137    -0.24500
C818        C  0.04417138  0.90163389  0.24876068    -0.29100
C819        C  0.07910061  0.92868481  0.23358552     0.06400
C820        C  0.11776516  0.95436599  0.24586284    -0.27800
H821        H  0.98285379  0.85334104  0.28216983     0.11200
H822        H  0.99043577  0.84851853  0.32915935     0.12300
H823        H  0.18786873  0.99921818  0.27362745     0.11400
H824        H  0.19537791  0.99459615  0.32058959     0.10600
H825        H  0.16558617  0.96204727  0.36243662     0.16000
H826        H  0.03505640  0.86821188  0.36803864     0.11900
H827        H  0.01408917  0.88214370  0.23957462     0.14800
H828        H  0.14487429  0.97544198  0.23442082     0.14500
C829        C  0.51927167  0.81805414  0.97972599    -0.18300
C830        C  0.52511088  0.82125341  0.95280160    -0.20500
C831        C  0.52362020  0.78806475  0.93865174     0.20100
C832        C  0.01658837  0.75148477  0.95178514    -0.03400
C833        C  0.01085718  0.74832577  0.97894062    -0.06500
C834        C  0.51190376  0.78164329  0.99295585     0.20400
C835        C  0.00366470  0.71164089  0.99199967     0.18600
C836        C  0.00256095  0.67862135  0.97790666    -0.18000
C837        C  0.00821649  0.68174301  0.95102183    -0.20200
C838        C  0.01513879  0.71795621  0.93779924     0.20100
C839        C  0.02089734  0.72124839  0.91086241    -0.33200
C840        C  0.02829605  0.75770315  0.89758170     0.00800
C841        C  0.52930394  0.79090446  0.91164765    -0.24500
C842        C  0.50482904  0.77764183  0.01985197    -0.29100
C843        C  0.99665905  0.74070440  0.03294460     0.06400
C844        C  0.99690602  0.70819675  0.01885153    -0.27800
H845        H  0.52027461  0.84398267  0.99018524     0.11200
H846        H  0.53064858  0.84963400  0.94303400     0.12300
H847        H  0.99705190  0.65023953  0.98766619     0.11400
H848        H  0.00710777  0.65576513  0.94055300     0.10600
H849        H  0.02000531  0.69544454  0.90029864     0.16000
H850        H  0.53516818  0.81926725  0.90170079     0.11900
H851        H  0.50494988  0.80302357  0.03046833     0.14800
H852        H  0.99071288  0.67959235  0.02861667     0.14500
C853        C  0.31283106  0.47596967  0.95306697    -0.18300
C854        C  0.31749449  0.48426679  0.97971534    -0.20500
C855        C  0.29143914  0.49587026  0.99261141     0.20100
C856        C  0.26030605  0.49906352  0.97851801    -0.03400
C857        C  0.25563557  0.49074910  0.95160864    -0.06500
C858        C  0.28207101  0.47920462  0.93885387     0.20400
C859        C  0.22437032  0.99370126  0.93756934     0.18600
C860        C  0.19829935  0.00526912  0.95049049    -0.18000
C861        C  0.20296188  0.01354472  0.97714825    -0.20200
C862        C  0.23374481  0.01033612  0.99135091     0.20100
C863        C  0.23859411  0.01857906  0.01807559    -0.33200
C864        C  0.26979471  0.01581828  0.03227533     0.00800
C865        C  0.29606903  0.50445194  0.01931372    -0.24500
C866        C  0.27727084  0.47099749  0.91213007    -0.29100
C867        C  0.24620647  0.47392651  0.89787112     0.06400
C868        C  0.21978157  0.98518672  0.91084052    -0.27800
H869        H  0.33332583  0.46705420  0.94356252     0.11200
H870        H  0.34153018  0.48162851  0.99024367     0.12300
H871        H  0.17426005  0.00791108  0.93997235     0.11400
H872        H  0.18246464  0.02244470  0.98666345     0.10600
H873        H  0.21834375  0.02769749  0.02771217     0.16000
H874        H  0.32013909  0.50211195  0.03002266     0.11900
H875        H  0.29755127  0.46189037  0.90252322     0.14800
H876        H  0.19573056  0.98754359  0.90012612     0.14500
C877        C  0.32858060  0.80654681  0.97738371    -0.18300
C878        C  0.32464475  0.81000101  0.95061757    -0.20500
C879        C  0.28950602  0.77932131  0.93723856     0.20100
C880        C  0.25814190  0.74465060  0.95092365    -0.03400
C881        C  0.26209947  0.74118214  0.97796113    -0.06500
C882        C  0.29744767  0.77236081  0.99122699     0.20400
C883        C  0.23066964  0.70663309  0.99169620     0.18600
C884        C  0.19566726  0.67578087  0.97827684    -0.18000
C885        C  0.19170682  0.67926355  0.95148617    -0.20200
C886        C  0.22269363  0.71363377  0.93765244     0.20100
C887        C  0.21857831  0.71781494  0.91087007    -0.33200
C888        C  0.24935527  0.75274773  0.89711489     0.00800
C889        C  0.28498068  0.78307174  0.91048876    -0.24500
C890        C  0.30118499  0.76880071  0.01807450    -0.29100
C891        C  0.27013495  0.73436796  0.03196788     0.06400
C892        C  0.23485138  0.70346221  0.01856998    -0.27800
H893        H  0.35596943  0.83070434  0.98727769     0.11200
H894        H  0.34901840  0.83680582  0.94039212     0.12300
H895        H  0.17128945  0.64900023  0.98851226     0.11400
H896        H  0.16428974  0.65514258  0.94160053     0.10600
H897        H  0.19098639  0.69415404  0.90087029     0.16000
H898        H  0.30898460  0.81008412  0.90020631     0.11900
H899        H  0.32857792  0.79277342  0.02807151     0.14800
H900        H  0.21071667  0.67669994  0.02896724     0.14500
C901        C  0.77542337  0.22971810  0.06012866     0.79700
N902        N  0.74686237  0.19508825  0.07317946    -0.78600
C903        C  0.75286272  0.18945245  0.09854666     0.82200
N904        N  0.78793879  0.21845164  0.11091954    -0.78500
C905        C  0.81657357  0.25333950  0.09816183     0.82300
N906        N  0.81033580  0.25871487  0.07277976    -0.80300
C907        C  0.74328261  0.25868456  0.86919972     0.79700
N908        N  0.70788842  0.23051981  0.85659037    -0.78600
C909        C  0.70098456  0.23726246  0.83158661     0.82200
N910        N  0.72943079  0.27261645  0.81917783    -0.78500
C911        C  0.76493219  0.30091381  0.83148255     0.82300
N912        N  0.77162007  0.29396819  0.85649629    -0.80300
O913        O  0.80794835  0.28042234  0.49646451    -0.72300
O914        O  0.70087320  0.24204178  0.46635920    -0.72500
O915        O  0.73570692  0.20818764  0.49686085    -0.72400
O916        O  0.77310734  0.31458554  0.46636625    -0.72400
O917        O  0.79221074  0.29491237  0.43178228    -0.72300
O918        O  0.75546768  0.18831484  0.46265820    -0.72400
O919        O  0.72023597  0.22185765  0.43212091    -0.72300
O920        O  0.82748214  0.26106786  0.46192928    -0.72500
V921        V  0.75478040  0.26092769  0.48081991     1.35200
V922        V  0.77346389  0.24193164  0.44776952     1.35200
C923        C  0.83553517  0.27630705  0.48452444     0.76900
C924        C  0.69262201  0.22602415  0.44392340     0.77000
C925        C  0.74018639  0.18057678  0.48530236     0.76900
C926        C  0.78825059  0.32260925  0.44376515     0.76800
O927        O  0.63325638  0.44146770  0.83011649    -0.72300
O928        O  0.52666321  0.40381296  0.79957116    -0.72500
O929        O  0.56089720  0.36922829  0.82988404    -0.72400
O930        O  0.59906333  0.47615986  0.79961674    -0.72400
O931        O  0.61865038  0.45655661  0.76521693    -0.72300
O932        O  0.58045461  0.34954572  0.79550406    -0.72400
O933        O  0.54627840  0.38429391  0.76514830    -0.72300
O934        O  0.65298111  0.42195502  0.79574663    -0.72500
V935        V  0.58036803  0.42230707  0.81411252     1.35200
V936        V  0.59924243  0.40348231  0.78107418     1.35200
C937        C  0.66085371  0.43711527  0.81841411     0.76900
C938        C  0.51865442  0.38846497  0.77698636     0.77000
C939        C  0.56501451  0.34154916  0.81806740     0.76900
C940        C  0.61431793  0.48412915  0.77699815     0.76800
C941        C  0.77568807  0.52638206  0.06028059     0.79700
N942        N  0.81086824  0.03264488  0.07285762    -0.78600
C943        C  0.81743253  0.04469108  0.09814025     0.82200
N944        N  0.78872406  0.05065143  0.11092912    -0.78500
C945        C  0.75331777  0.04399337  0.09867667     0.82300
N946        N  0.74712213  0.03212217  0.07339710    -0.80300
C947        C  0.74069831  0.96388388  0.86974982     0.79700
N948        N  0.76932142  0.45784900  0.85686047    -0.78600
C949        C  0.76372105  0.44665934  0.83146845     0.82200
N950        N  0.72892877  0.44096252  0.81886217    -0.78500
C951        C  0.70024885  0.44723573  0.83140700     0.82300
N952        N  0.70618268  0.45856003  0.85684411    -0.80300
C953        C  0.48527051  0.23477884  0.06089402     0.79700
N954        N  0.47829339  0.19932654  0.07339550    -0.78600
C955        C  0.96472882  0.19204376  0.09834263     0.82200
N956        N  0.95754026  0.22015294  0.11082073    -0.78500
C957        C  0.96446855  0.25570164  0.09861340     0.82300
N958        N  0.47809664  0.26280001  0.07363814    -0.80300
C959        C  0.53716784  0.26186570  0.86937100     0.79700
N960        N  0.54299698  0.29641328  0.85630410    -0.78600
C961        C  0.55433125  0.30199094  0.83093543     0.82200
N962        N  0.56046547  0.27305023  0.81859391    -0.78500
C963        C  0.55445487  0.23822948  0.83140233     0.82300
N964        N  0.54306026  0.23290439  0.85676738    -0.80300
O965        O  0.97228033  0.10944525  0.16356420    -0.72300
O966        O  0.86539264  0.07099657  0.13331069    -0.72500
O967        O  0.90028303  0.03696712  0.16358196    -0.72400
O968        O  0.93765452  0.14369099  0.13325216    -0.72400
O969        O  0.95774475  0.12443469  0.09892480    -0.72300
O970        O  0.91938424  0.01716765  0.12905761    -0.72400
O971        O  0.88515260  0.05199403  0.09873260    -0.72300
O972        O  0.49189314  0.08961811  0.12927760    -0.72500
V973        V  0.91927571  0.08990556  0.14772977     1.35200
V974        V  0.93816323  0.07118587  0.11465315     1.35200
C975        C  0.49982549  0.10500478  0.15187482     0.76900
C976        C  0.85737204  0.05576010  0.11068846     0.77000
C977        C  0.90428727  0.00925641  0.15171993     0.76900
C978        C  0.95346481  0.15199295  0.11078962     0.76800
C979        C  0.60740330  0.40723076  0.39601322     0.79700
N980        N  0.64300993  0.43491530  0.40861091    -0.78600
C981        C  0.65056285  0.42717196  0.43322630     0.82200
N982        N  0.62257213  0.39105807  0.44520061    -0.78500
C983        C  0.58693171  0.36306043  0.43279627     0.82300
N984        N  0.57954795  0.37119621  0.40820917    -0.80300
C985        C  0.57530732  0.43121572  0.20497529     0.79700
N986        N  0.60528259  0.46456703  0.19167772    -0.78600
C987        C  0.60113083  0.46886387  0.16586655     0.82200
N988        N  0.56651090  0.43968757  0.15320314    -0.78500
C989        C  0.53659833  0.40585810  0.16616057     0.82300
N990        N  0.54087717  0.40191883  0.19208329    -0.80300
C991        C  0.60905860  0.19108251  0.39428498     0.79700
N992        N  0.64473659  0.19890550  0.40681620    -0.78600
C993        C  0.65255108  0.21427496  0.43138605     0.82200
N994        N  0.62476828  0.22237589  0.44340951    -0.78500
C995        C  0.58910450  0.21477617  0.43114085     0.82300
N996        N  0.58143246  0.19932329  0.40658537    -0.80300
C997        C  0.57865478  0.13080514  0.20356414     0.79700
N998        N  0.54445163  0.12575933  0.19043255    -0.78600
C999        C  0.53908618  0.11508285  0.16492192     0.82200
N1000       N  0.56787158  0.10884469  0.15251457    -0.78500
C1001       C  0.60233412  0.11412391  0.16534307     0.82300
N1002       N  0.60746737  0.12485441  0.19084058    -0.80300
O1003       O  0.62366289  0.08796881  0.13005091    -0.72300
O1004       O  0.69229218  0.04995361  0.09982573    -0.72500
O1005       O  0.62355649  0.01550898  0.13011990    -0.72400
O1006       O  0.69223018  0.12221575  0.09970391    -0.72400
O1007       O  0.73174899  0.14206901  0.13409454    -0.72300
O1008       O  0.66294754  0.03526774  0.16456978    -0.72400
O1009       O  0.73179291  0.06962117  0.13421793    -0.72300
O1010       O  0.66308496  0.10757976  0.16447893    -0.72500
V1011       V  0.65870932  0.06927948  0.11560345     1.35200
V1012       V  0.69665092  0.08823618  0.14866543     1.35200
C1013       C  0.63119989  0.10339499  0.15263231     0.76900
C1014       C  0.72429901  0.05430843  0.11160876     0.77000
C1015       C  0.63086435  0.00772840  0.15281583     0.76900
C1016       C  0.72412789  0.14993957  0.11148039     0.76800
O1017       O  0.50022280  0.20545263  0.49637500    -0.72300
O1018       O  0.56659894  0.31383010  0.46726500    -0.72500
O1019       O  0.49786693  0.27676489  0.49741484    -0.72400
O1020       O  0.56867024  0.24231034  0.46609589    -0.72400
O1021       O  0.52872637  0.22196265  0.43190229    -0.72300
O1022       O  0.95916222  0.25832200  0.46268131    -0.72400
O1023       O  0.52787580  0.29422261  0.43254040    -0.72300
O1024       O  0.96020985  0.18630033  0.46221832    -0.72500
V1025       V  0.53259339  0.25923445  0.48110409     1.35200
V1026       V  0.99477261  0.24058299  0.44799864     1.35200
C1027       C  0.96841506  0.17775565  0.48450398     0.76900
C1028       C  0.55900528  0.32225453  0.44480022     0.77000
C1029       C  0.96619637  0.27294430  0.48545069     0.76900
C1030       C  0.56081305  0.22645858  0.44362399     0.76800
C1031       C  0.91502518  0.30325746  0.53566584     0.79700
N1032       N  0.88101720  0.29850234  0.52252180    -0.78600
C1033       C  0.87493954  0.28643013  0.49730597     0.82200
N1034       N  0.90302579  0.27881741  0.48513804    -0.78500
C1035       C  0.93736512  0.28383503  0.49804147     0.82300
N1036       N  0.94302820  0.29565537  0.52333917    -0.80300
C1037       C  0.93805390  0.36038836  0.72622708     0.79700
N1038       N  0.97279118  0.36613718  0.73898865    -0.78600
C1039       C  0.97900243  0.37784251  0.76429150     0.82200
N1040       N  0.95032969  0.38401327  0.77690566    -0.78500
C1041       C  0.91530473  0.37792521  0.76441791     0.82300
N1042       N  0.90949215  0.36655904  0.73903092    -0.80300
O1043       O  0.85400618  0.38327621  0.76573579    -0.72300
O1044       O  0.78552943  0.42138748  0.79595212    -0.72500
O1045       O  0.85432100  0.45564188  0.76543397    -0.72400
O1046       O  0.78552277  0.34891448  0.79626924    -0.72400
O1047       O  0.82553331  0.36854469  0.83043041    -0.72300
O1048       O  0.89334593  0.47573851  0.80002431    -0.72400
O1049       O  0.82465050  0.44048094  0.83051035    -0.72300
O1050       O  0.89401670  0.40369494  0.79990361    -0.72500
V1051       V  0.82057276  0.40268908  0.78153719     1.35200
V1052       V  0.85860957  0.42175242  0.81454907     1.35200
C1053       C  0.88628306  0.38810371  0.77736961     0.76900
C1054       C  0.79279336  0.43634885  0.81864232     0.77000
C1055       C  0.88623971  0.48341373  0.77722434     0.76900
C1056       C  0.79347899  0.34083151  0.81875118     0.76800
C1057       C  0.92032776  0.09363958  0.53391255     0.79700
N1058       N  0.88417795  0.06624763  0.52166317    -0.78600
C1059       C  0.87605942  0.07403083  0.49719241     0.82200
N1060       N  0.90416277  0.10970970  0.48491030    -0.78500
C1061       C  0.94038868  0.13733432  0.49686886     0.82300
N1062       N  0.94822186  0.12935791  0.52140833    -0.80300
C1063       C  0.94204852  0.06160564  0.72539021     0.79700
N1064       N  0.91222424  0.02736336  0.73823487    -0.78600
C1065       C  0.91588785  0.02266583  0.76413924     0.82200
N1066       N  0.94999154  0.05210145  0.77716943    -0.78500
C1067       C  0.97967142  0.08658959  0.76457407     0.82300
N1068       N  0.97562976  0.09102518  0.73876571    -0.80300
O1069       O  0.89771486  0.34371143  0.16397537    -0.72300
O1070       O  0.93687679  0.27581869  0.13379221    -0.72500
O1071       O  0.97005976  0.34424374  0.16450645    -0.72400
O1072       O  0.86406695  0.27502206  0.13350945    -0.72400
O1073       O  0.88378520  0.31460490  0.09912112    -0.72300
O1074       O  0.49007165  0.38395556  0.13017303    -0.72400
O1075       O  0.95663348  0.31564798  0.09951227    -0.72300
O1076       O  0.91747448  0.38327655  0.12957677    -0.72500
V1077       V  0.91753490  0.31041150  0.14825104     1.35200
V1078       V  0.93658476  0.34858458  0.11526342     1.35200
C1079       C  0.90214511  0.37578420  0.15215750     0.76900
C1080       C  0.95273887  0.28383137  0.11130737     0.77000
C1081       C  0.49763658  0.37648564  0.15292292     0.76900
C1082       C  0.85616673  0.28251929  0.11088808     0.76800
C1083       C  0.81959672  0.40515985  0.39393933     0.79700
N1084       N  0.81295891  0.36993418  0.40651745    -0.78600
C1085       C  0.79905872  0.36249957  0.43134480     0.82200
N1086       N  0.79131183  0.39033465  0.44370915    -0.78500
C1087       C  0.79788378  0.42571107  0.43140912     0.82300
N1088       N  0.81177384  0.43290763  0.40648898    -0.80300
C1089       C  0.87682858  0.42982808  0.20315513     0.79700
N1090       N  0.88173695  0.40033885  0.19043562    -0.78600
C1091       C  0.89227713  0.40523787  0.16490660     0.82200
N1092       N  0.89862020  0.44020456  0.15211478    -0.78500
C1093       C  0.89347950  0.46965586  0.16459330     0.82300
N1094       N  0.88282388  0.46441561  0.19006156    -0.80300
O1095       O  0.75469477  0.05554811  0.46391904    -0.72300
O1096       O  0.79056999  0.98603560  0.43255851    -0.72500
O1097       O  0.71864904  0.48701463  0.43358785    -0.72400
O1098       O  0.82660676  0.05448683  0.46292227    -0.72400
O1099       O  0.80745973  0.51474545  0.49725086    -0.72300
O1100       O  0.69936661  0.44746309  0.46798418    -0.72400
O1101       O  0.77125400  0.44629279  0.46684402    -0.72300
O1102       O  0.73560994  0.51614532  0.49839089    -0.72500
V1103       V  0.77223465  0.02000452  0.44894378     1.35200
V1104       V  0.75377904  0.48192833  0.48195667     1.35200
C1105       C  0.73972409  0.04813362  0.48660368     0.76900
C1106       C  0.78653019  0.45406682  0.44421372     0.77000
C1107       C  0.69091465  0.45533250  0.44559350     0.76900
C1108       C  0.83527031  0.04635949  0.48517969     0.76800
C1109       C  0.70984642  0.10018979  0.53661746     0.79700
N1110       N  0.71701965  0.13531499  0.52364673    -0.78600
C1111       C  0.72962780  0.14124872  0.49848762     0.82200
N1112       N  0.73600177  0.11231874  0.48641903    -0.78500
C1113       C  0.72906847  0.07716555  0.49918360     0.82300
N1114       N  0.71597756  0.07115781  0.52427043    -0.80300
C1115       C  0.64270215  0.06513321  0.72627897     0.79700
N1116       N  0.63617095  0.02989795  0.73884107    -0.78600
C1117       C  0.62469072  0.02370901  0.76420826     0.82200
N1118       N  0.61871967  0.05244601  0.77691353    -0.78500
C1119       C  0.62515102  0.08773571  0.76458537     0.82300
N1120       N  0.63713005  0.09399052  0.73927631    -0.80300
O1121       O  0.61894953  0.14861519  0.76598914    -0.72300
O1122       O  0.58031486  0.21658258  0.79622814    -0.72500
O1123       O  0.65289996  0.21695175  0.79653981    -0.72400
O1124       O  0.54644275  0.14789915  0.76589245    -0.72400
O1125       O  0.52638196  0.10871103  0.80045434    -0.72300
O1126       O  0.63341387  0.17680635  0.83067802    -0.72400
O1127       O  0.56136277  0.17750333  0.83083515    -0.72300
O1128       O  0.59862374  0.10838259  0.80008692    -0.72500
V1129       V  0.59925578  0.18176427  0.78185957     1.35200
V1130       V  0.58031529  0.14362095  0.81485893     1.35200
C1131       C  0.61442353  0.11639813  0.77758262     0.76900
C1132       C  0.56519339  0.20923018  0.81886192     0.77000
C1133       C  0.66104380  0.20888578  0.81896582     0.76900
C1134       C  0.51870668  0.11598478  0.77771729     0.76800
C1135       C  0.63409631  0.50461758  0.63951243    -0.18300
C1136       C  0.64295514  0.50944931  0.61292901    -0.20500
C1137       C  0.66565686  0.04964144  0.60191143     0.20100
C1138       C  0.67925602  0.08525906  0.61781280    -0.03400
C1139       C  0.67033994  0.08036916  0.64465531    -0.06500
C1140       C  0.64777278  0.03986532  0.65553040     0.20400
C1141       C  0.68410532  0.11597102  0.66059424     0.18600
C1142       C  0.70679008  0.15609457  0.64957807    -0.18000
C1143       C  0.71566321  0.16093918  0.62298303    -0.20200
C1144       C  0.70198631  0.12575302  0.60694201     0.20100
C1145       C  0.71097004  0.13033257  0.58028486    -0.33200
C1146       C  0.69821178  0.09497574  0.56440955     0.00800
C1147       C  0.67548104  0.05473739  0.57536892    -0.24500
C1148       C  0.63947430  0.03524345  0.68225530    -0.30000
C1149       C  0.65284354  0.07054461  0.69825281     0.06400
C1150       C  0.67496447  0.11082444  0.68724697    -0.27800
H1151       H  0.61661874  0.47330068  0.64755943     0.11200
H1152       H  0.63220215  0.48179728  0.60099590     0.12300
H1153       H  0.71771044  0.18374027  0.66153736     0.11400
H1154       H  0.73331396  0.19225706  0.61496183     0.10600
H1155       H  0.72881668  0.16147382  0.57201431     0.16000
H1156       H  0.66547897  0.52730253  0.56324028     0.11900
H1157       H  0.62217041  0.50403557  0.69057975     0.14800
H1158       H  0.68542645  0.13814310  0.69947702     0.14500
C1159       C  0.84357068  0.48167882  0.31090586    -0.18300
C1160       C  0.85046748  0.48442918  0.28411290    -0.20500
C1161       C  0.85609036  0.45413806  0.27123068     0.20100
C1162       C  0.85518758  0.42099154  0.28548333    -0.03400
C1163       C  0.84833651  0.41828138  0.31251732    -0.06500
C1164       C  0.84223179  0.44862726  0.32525287     0.20400
C1165       C  0.84712358  0.38495204  0.32672221     0.18600
C1166       C  0.85325778  0.35494643  0.31390325    -0.18000
C1167       C  0.86007186  0.35765086  0.28711534    -0.20200
C1168       C  0.86086311  0.39039685  0.27272269     0.20100
C1169       C  0.86727240  0.39308473  0.24581498    -0.33200
C1170       C  0.86827367  0.42607741  0.23142568     0.00800
C1171       C  0.86260895  0.45646188  0.24435259    -0.24500
C1172       C  0.83415193  0.44497239  0.35200332    -0.29100
C1173       C  0.83183427  0.41120489  0.36620097     0.06400
C1174       C  0.83906394  0.38173316  0.35341668    -0.27800
H1175       H  0.83899806  0.50527289  0.32038291     0.11200
H1176       H  0.85119992  0.51014315  0.27344211     0.12300
H1177       H  0.85247596  0.32920242  0.32456958     0.11400
H1178       H  0.86453779  0.33399342  0.27762866     0.10600
H1179       H  0.87184710  0.36961673  0.23615875     0.16000
H1180       H  0.86340000  0.48210719  0.23355336     0.11900
H1181       H  0.82874185  0.46794449  0.36160050     0.14800
H1182       H  0.83760398  0.35567478  0.36409778     0.14500
C1183       C  0.87064179  0.00863775  0.61400088    -0.18300
C1184       C  0.87294453  0.00463214  0.64086894    -0.20500
C1185       C  0.90550654  0.03660274  0.65527528     0.20100
C1186       C  0.93656454  0.07259909  0.64240094    -0.03400
C1187       C  0.93426370  0.07662745  0.61526195    -0.06500
C1188       C  0.90086993  0.04468059  0.60107942     0.20400
C1189       C  0.96485995  0.11295754  0.60243134     0.18600
C1190       C  0.99798327  0.14449619  0.61676833    -0.18000
C1191       C  0.00032096  0.14046480  0.64365620    -0.20200
C1192       C  0.96954237  0.10484150  0.65666916     0.20100
C1193       C  0.97098804  0.10108778  0.68370916    -0.33200
C1194       C  0.93982143  0.06551393  0.69679999     0.00800
C1195       C  0.90731818  0.03330851  0.68233070    -0.24500
C1196       C  0.89759831  0.04975375  0.57435207    -0.29100
C1197       C  0.92703808  0.08656073  0.56150373     0.06400
C1198       C  0.96117112  0.11760676  0.57564468    -0.27800
H1199       H  0.84543096  0.48338043  0.60332202     0.11200
H1200       H  0.84954596  0.47628322  0.65038116     0.12300
H1201       H  0.02182120  0.17254962  0.60723136     0.11400
H1202       H  0.02596885  0.16542723  0.65431450     0.10600
H1203       H  0.99639793  0.12604779  0.69452521     0.16000
H1204       H  0.88333737  0.00557985  0.69207835     0.11900
H1205       H  0.87134509  0.02540524  0.56372786     0.14800
H1206       H  0.98420932  0.14603805  0.56602633     0.14500
C1207       C  0.88043818  0.36348626  0.63996655    -0.18300
C1208       C  0.87794161  0.35629274  0.61319899    -0.20500
C1209       C  0.89993700  0.33857506  0.60178177     0.20100
C1210       C  0.92482428  0.32814569  0.61744451    -0.03400
C1211       C  0.92727964  0.33532034  0.64443117    -0.06500
C1212       C  0.90492234  0.35300640  0.65574627     0.20400
C1213       C  0.95222854  0.32491404  0.66005252     0.18600
C1214       C  0.47417383  0.30716218  0.64865490    -0.18000
C1215       C  0.47168077  0.29998163  0.62192421    -0.20200
C1216       C  0.94724410  0.31049979  0.60616859     0.20100
C1217       C  0.94465730  0.30340696  0.57936470    -0.33200
C1218       C  0.91954881  0.31324358  0.56365893     0.00800
C1219       C  0.89732936  0.33089815  0.57501599    -0.24500
C1220       C  0.90773718  0.36020721  0.68259430    -0.29100
C1221       C  0.93306128  0.35044923  0.69821120     0.06400
C1222       C  0.95506627  0.33269405  0.68677335    -0.27800
H1223       H  0.86323061  0.37725263  0.64832291     0.11200
H1224       H  0.85877341  0.36456620  0.60142604     0.12300
H1225       H  0.49337017  0.29891036  0.66041962     0.11400
H1226       H  0.48892056  0.28624651  0.61356429     0.10600
H1227       H  0.46152950  0.28938570  0.57084031     0.16000
H1228       H  0.87796226  0.33865811  0.56303153     0.11900
H1229       H  0.89096710  0.37426759  0.69121321     0.14800
H1230       H  0.47449456  0.32492065  0.69868968     0.14500
C1231       C  0.65725434  0.15635500  0.28581490    -0.18300
C1232       C  0.66085142  0.16333798  0.31260331    -0.20500
C1233       C  0.62910169  0.16516458  0.32639685     0.20100
C1234       C  0.59302980  0.15919175  0.31315124    -0.03400
C1235       C  0.58940412  0.15216080  0.28609245    -0.06500
C1236       C  0.62181788  0.15103152  0.27236754     0.20400
C1237       C  0.55358781  0.14671226  0.27276442     0.18600
C1238       C  0.52146419  0.14772241  0.28665593    -0.18000
C1239       C  0.52509709  0.15478291  0.31346263    -0.20200
C1240       C  0.56092012  0.16094680  0.32684190     0.20100
C1241       C  0.56562772  0.16983655  0.35352400    -0.33200
C1242       C  0.60217953  0.17726908  0.36674479     0.00800
C1243       C  0.63331836  0.17389432  0.35306538    -0.24500
C1244       C  0.61832545  0.14465231  0.24544351    -0.29100
C1245       C  0.58277878  0.13927172  0.23191460     0.06400
C1246       C  0.55053972  0.14039466  0.24580396    -0.27800
H1247       H  0.68234056  0.15540347  0.27558034     0.11200
H1248       H  0.68872148  0.16777254  0.32249577     0.12300
H1249       H  0.99363779  0.14337175  0.27675051     0.11400
H1250       H  0.00007722  0.15587532  0.32368390     0.10600
H1251       H  0.54122453  0.17197988  0.36380895     0.16000
H1252       H  0.66152771  0.17928549  0.36296047     0.11900
H1253       H  0.64333884  0.14374650  0.23507401     0.14800
H1254       H  0.52284337  0.13603924  0.23571214     0.14500
C1255       C  0.51329441  0.37265223  0.29095000    -0.18300
C1256       C  0.51762715  0.36993694  0.31778013    -0.20500
C1257       C  0.55663506  0.39429486  0.32983852     0.20100
C1258       C  0.59139153  0.42243479  0.31481143    -0.03400
C1259       C  0.58706000  0.42506576  0.28774379    -0.06500
C1260       C  0.54793479  0.39969532  0.27571468     0.20400
C1261       C  0.62205044  0.45260991  0.27269381     0.18600
C1262       C  0.66081614  0.47773602  0.28481210    -0.18000
C1263       C  0.66510865  0.47513051  0.31161200    -0.20200
C1264       C  0.63069198  0.44735350  0.32672705     0.20100
C1265       C  0.63519175  0.44337059  0.35343262    -0.33200
C1266       C  0.60109454  0.41428275  0.36842336     0.00800
C1267       C  0.56172697  0.39033268  0.35652348    -0.24500
C1268       C  0.54424613  0.40154177  0.24866368    -0.29100
C1269       C  0.57916237  0.42861396  0.23348644     0.06400
C1270       C  0.61783475  0.45428920  0.24575718    -0.27800
H1271       H  0.48295568  0.35321987  0.28207363     0.11200
H1272       H  0.49054811  0.34837999  0.32905799     0.12300
H1273       H  0.68795094  0.49913726  0.27351559     0.11400
H1274       H  0.69547730  0.49449525  0.32047543     0.10600
H1275       H  0.66569348  0.46193622  0.36232822     0.16000
H1276       H  0.53516723  0.36808779  0.36793189     0.11900
H1277       H  0.51416079  0.38205607  0.23948390     0.14800
H1278       H  0.64493353  0.47538050  0.23431253     0.14500
C1279       C  0.01896286  0.31794070  0.97971141    -0.18300
C1280       C  0.02482698  0.32114331  0.95278996    -0.20500
C1281       C  0.02350919  0.28801965  0.93865946     0.20100
C1282       C  0.51663222  0.25150608  0.95180999    -0.03400
C1283       C  0.51087390  0.24834371  0.97896267    -0.06500
C1284       C  0.01174235  0.28159223  0.99295732     0.20400
C1285       C  0.50382780  0.21172113  0.99203858     0.18600
C1286       C  0.50290695  0.17877142  0.97796621    -0.18000
C1287       C  0.50859119  0.18189774  0.95108341    -0.20200
C1288       C  0.51535676  0.21804369  0.93784343     0.20100
C1289       C  0.52111990  0.22133119  0.91090738    -0.33200
C1290       C  0.52835187  0.25771640  0.89760833     0.00800
C1291       C  0.02920307  0.29085608  0.91165715    -0.24500
C1292       C  0.00463818  0.27758198  0.01984872    -0.29100
C1293       C  0.49660783  0.24070174  0.03295736     0.06400
C1294       C  0.49703004  0.20826592  0.01888613    -0.27800
H1295       H  0.01982796  0.34381712  0.99015633     0.11200
H1296       H  0.03024470  0.34947344  0.94300863     0.12300
H1297       H  0.49751630  0.15044246  0.98773831     0.11400
H1298       H  0.50762069  0.15597354  0.94062991     0.10600
H1299       H  0.52035763  0.19557611  0.90035825     0.16000
H1300       H  0.03493774  0.31916743  0.90169631     0.11900
H1301       H  0.00462211  0.30291048  0.03044870     0.14800
H1302       H  0.49095061  0.17970652  0.02866551     0.14500
C1303       C  0.81282636  0.97591625  0.95308118    -0.18300
C1304       C  0.81750088  0.98420654  0.97973117    -0.20500
C1305       C  0.79140381  0.99573712  0.99264655     0.20100
C1306       C  0.76021385  0.99885653  0.97857049    -0.03400
C1307       C  0.75553209  0.99054816  0.95165859    -0.06500
C1308       C  0.78201367  0.97908395  0.93888441     0.20400
C1309       C  0.72452616  0.49396983  0.93750326     0.18600
C1310       C  0.69850160  0.50561853  0.95040364    -0.18000
C1311       C  0.70315345  0.51390021  0.97706009    -0.20200
C1312       C  0.73387811  0.51061650  0.99127959     0.20100
C1313       C  0.73870664  0.51885231  0.01800394    -0.33200
C1314       C  0.76984603  0.51601028  0.03221947     0.00800
C1315       C  0.79605304  0.00432378  0.01935050    -0.24500
C1316       C  0.77721228  0.97089465  0.91215706    -0.29100
C1317       C  0.74610214  0.97376534  0.89791116     0.06400
C1318       C  0.71993822  0.48543505  0.91077926    -0.27800
H1319       H  0.83335763  0.96706180  0.94356227     0.11200
H1320       H  0.84157889  0.98162425  0.99024425     0.12300
H1321       H  0.67450679  0.50831434  0.93987211     0.11400
H1322       H  0.68269136  0.52285900  0.98656080     0.10600
H1323       H  0.71849072  0.52802485  0.02762719     0.16000
H1324       H  0.82016820  0.00204482  0.03004359     0.11900
H1325       H  0.79753318  0.96185628  0.90253697     0.14800
H1326       H  0.69592375  0.48784042  0.90005099     0.14500
C1327       C  0.82859352  0.30637128  0.97735513    -0.18300
C1328       C  0.82462383  0.30986867  0.95059789    -0.20500
C1329       C  0.78945996  0.27921881  0.93722383     0.20100
C1330       C  0.75811053  0.24452723  0.95090163    -0.03400
C1331       C  0.76210153  0.24101530  0.97792990    -0.06500
C1332       C  0.79746712  0.27217330  0.99119300     0.20400
C1333       C  0.73068102  0.20645244  0.99166035     0.18600
C1334       C  0.69566369  0.17561877  0.97824266    -0.18000
C1335       C  0.69167088  0.17914434  0.95146015    -0.20200
C1336       C  0.72264007  0.21353744  0.93763362     0.20100
C1337       C  0.71848908  0.21776716  0.91086167    -0.33200
C1338       C  0.74925606  0.25271848  0.89711541     0.00800
C1339       C  0.78489941  0.28301890  0.91048523    -0.24500
C1340       C  0.80121710  0.26859419  0.01803533    -0.29100
C1341       C  0.77015956  0.23416809  0.03192765     0.06400
C1342       C  0.73487592  0.20326236  0.01853033    -0.27800
H1343       H  0.85599616  0.33050933  0.98724721     0.11200
H1344       H  0.84898838  0.33668579  0.94037652     0.12300
H1345       H  0.67129508  0.14882628  0.98847425     0.11400
H1346       H  0.66423859  0.15504000  0.94157542     0.10600
H1347       H  0.69088468  0.19412605  0.90086346     0.16000
H1348       H  0.80889188  0.31004197  0.90020964     0.11900
H1349       H  0.82861652  0.29256044  0.02803181     0.14800
H1350       H  0.71074136  0.17650081  0.02892713     0.14500
C1351       C  0.77542155  0.72988750  0.06016455     0.79700
N1352       N  0.74685409  0.69525351  0.07321090    -0.78600
C1353       C  0.75287494  0.68957147  0.09856706     0.82200
N1354       N  0.78798477  0.71853069  0.11093249    -0.78500
C1355       C  0.81663174  0.75342224  0.09817956     0.82300
N1356       N  0.81036807  0.75884221  0.07280873    -0.80300
C1357       C  0.74338848  0.75868616  0.86919104     0.79700
N1358       N  0.70799036  0.73051403  0.85658597    -0.78600
C1359       C  0.70107117  0.73725211  0.83158353     0.82200
N1360       N  0.72950571  0.77260886  0.81917275    -0.78500
C1361       C  0.76500926  0.80091430  0.83147163     0.82300
N1362       N  0.77171315  0.79397353  0.85648382    -0.80300
O1363       O  0.80791687  0.78035468  0.49646315    -0.72300
O1364       O  0.70084240  0.74198613  0.46635714    -0.72500
O1365       O  0.73566535  0.70812579  0.49685514    -0.72400
O1366       O  0.77307774  0.81453007  0.46637489    -0.72400
O1367       O  0.79216440  0.79486084  0.43178207    -0.72300
O1368       O  0.75544190  0.68826102  0.46265583    -0.72400
O1369       O  0.72019812  0.72178872  0.43212166    -0.72300
O1370       O  0.82745404  0.76102136  0.46192028    -0.72500
V1371       V  0.75474794  0.76086795  0.48081960     1.35200
V1372       V  0.77343055  0.74187726  0.44776652     1.35200
C1373       C  0.83550786  0.77625273  0.48451718     0.76900
C1374       C  0.69258381  0.72595189  0.44392552     0.77000
C1375       C  0.74014413  0.68051617  0.48529628     0.76900
C1376       C  0.78820985  0.82255723  0.44377179     0.76800
O1377       O  0.63322158  0.94144949  0.83011144    -0.72300
O1378       O  0.52664894  0.90382311  0.79954485    -0.72500
O1379       O  0.56086323  0.86921336  0.82985648    -0.72400
O1380       O  0.59904815  0.97616583  0.79960724    -0.72400
O1381       O  0.61864990  0.95657699  0.76520791    -0.72300
O1382       O  0.58043888  0.84954695  0.79547778    -0.72400
O1383       O  0.54627707  0.88431907  0.76512117    -0.72300
O1384       O  0.65296484  0.92195571  0.79574171    -0.72500
V1385       V  0.58034401  0.92230304  0.81409518     1.35200
V1386       V  0.59923370  0.90349374  0.78105712     1.35200
C1387       C  0.66082263  0.93709623  0.81841499     0.76900
C1388       C  0.51865186  0.88849398  0.77695557     0.77000
C1389       C  0.56499261  0.84154082  0.81803971     0.76900
C1390       C  0.61430796  0.98414379  0.77698948     0.76800
C1391       C  0.77566076  0.02621258  0.06033780     0.79700
N1392       N  0.81088069  0.53279062  0.07280566    -0.78600
C1393       C  0.81742783  0.54480963  0.09809105     0.82200
N1394       N  0.78871633  0.55076407  0.11087977    -0.78500
C1395       C  0.75332178  0.54412608  0.09862122     0.82300
N1396       N  0.74714275  0.53228384  0.07333689    -0.80300
C1397       C  0.74078297  0.46400376  0.86971967     0.79700
N1398       N  0.76925083  0.95775491  0.85688491    -0.78600
C1399       C  0.76367543  0.94661197  0.83148383     0.82200
N1400       N  0.72889533  0.94093895  0.81887337    -0.78500
C1401       C  0.70020306  0.94718964  0.83142098     0.82300
N1402       N  0.70611041  0.95846476  0.85686788    -0.80300
C1403       C  0.48534779  0.73479673  0.06088717     0.79700
N1404       N  0.47836202  0.69934010  0.07338843    -0.78600
C1405       C  0.96480470  0.69206223  0.09833779     0.82200
N1406       N  0.95762832  0.72017679  0.11081661    -0.78500
C1407       C  0.96456135  0.75572683  0.09861151     0.82300
N1408       N  0.47818574  0.76282528  0.07363404    -0.80300
C1409       C  0.53713757  0.76185789  0.86934738     0.79700
N1410       N  0.54295921  0.79639820  0.85627453    -0.78600
C1411       C  0.55432121  0.80198385  0.83091031     0.82200
N1412       N  0.56049640  0.77305887  0.81858069    -0.78500
C1413       C  0.55449723  0.73824614  0.83139662     0.82300
N1414       N  0.54306914  0.73291258  0.85675564    -0.80300
O1415       O  0.97217939  0.60935244  0.16356813    -0.72300
O1416       O  0.86536073  0.57106435  0.13326941    -0.72500
O1417       O  0.90013335  0.53692715  0.16354458    -0.72400
O1418       O  0.93767528  0.64370264  0.13324146    -0.72400
O1419       O  0.95775245  0.62442620  0.09891701    -0.72300
O1420       O  0.91924586  0.51712394  0.12902660    -0.72400
O1421       O  0.88511325  0.55203843  0.09869763    -0.72300
O1422       O  0.49180073  0.58952752  0.12928399    -0.72500
V1423       V  0.91921092  0.58989293  0.14770827     1.35200
V1424       V  0.93809777  0.57116116  0.11463628     1.35200
C1425       C  0.49971642  0.60488949  0.15188816     0.76900
C1426       C  0.85734640  0.55583781  0.11064596     0.77000
C1427       C  0.90411848  0.50920594  0.15168057     0.76900
C1428       C  0.95350202  0.65200063  0.11078255     0.76800
C1429       C  0.60731381  0.90731370  0.39610949     0.79700
N1430       N  0.64292956  0.93498596  0.40870413    -0.78600
C1431       C  0.65052445  0.92720052  0.43329919     0.82200
N1432       N  0.62256333  0.89105236  0.44525597    -0.78500
C1433       C  0.58691465  0.86306356  0.43285167     0.82300
N1434       N  0.57949121  0.87124569  0.40828595    -0.80300
C1435       C  0.57528054  0.93125394  0.20506800     0.79700
N1436       N  0.60527177  0.96459602  0.19177104    -0.78600
C1437       C  0.60116393  0.96885484  0.16595010     0.82200
N1438       N  0.56657667  0.93965317  0.15327597    -0.78500
C1439       C  0.53665011  0.90583415  0.16623034     0.82300
N1440       N  0.54087946  0.90192929  0.19216432    -0.80300
C1441       C  0.60894157  0.69086364  0.39432662     0.79700
N1442       N  0.64464324  0.69872795  0.40684565    -0.78600
C1443       C  0.65249830  0.71417101  0.43139817     0.82200
N1444       N  0.62473424  0.72230358  0.44341573    -0.78500
C1445       C  0.58905223  0.71467082  0.43115911     0.82300
N1446       N  0.58133707  0.69914332  0.40662082    -0.80300
C1447       C  0.57846255  0.63054785  0.20361201     0.79700
N1448       N  0.54426741  0.62551510  0.19047697    -0.78600
C1449       C  0.53895063  0.61492653  0.16495166     0.82200
N1450       N  0.56777515  0.60876517  0.15253250    -0.78500
C1451       C  0.60223182  0.61403726  0.16536344     0.82300
N1452       N  0.60731760  0.62467767  0.19087579    -0.80300
O1453       O  0.62363473  0.58802670  0.13003357    -0.72300
O1454       O  0.69228822  0.55006968  0.09977678    -0.72500
O1455       O  0.62352900  0.51557129  0.13005561    -0.72400
O1456       O  0.69222776  0.62233306  0.09969920    -0.72400
O1457       O  0.73171850  0.64214303  0.13410167    -0.72300
O1458       O  0.66291564  0.53527683  0.16450722    -0.72400
O1459       O  0.73177836  0.56970491  0.13417389    -0.72300
O1460       O  0.66302570  0.60757040  0.16447534    -0.72500
V1461       V  0.65869419  0.56936851  0.11556925     1.35200
V1462       V  0.69661722  0.58827786  0.14863924     1.35200
C1463       C  0.63114056  0.60338974  0.15263152     0.76900
C1464       C  0.72429410  0.55441928  0.11155831     0.77000
C1465       C  0.63083203  0.50775486  0.15274393     0.76900
C1466       C  0.72411976  0.65004339  0.11148876     0.76800
O1467       O  0.50018394  0.70540874  0.49638232    -0.72300
O1468       O  0.56660260  0.81378177  0.46728771    -0.72500
O1469       O  0.49785323  0.77672942  0.49741700    -0.72400
O1470       O  0.56864170  0.74223998  0.46610990    -0.72400
O1471       O  0.52871226  0.72191876  0.43190973    -0.72300
O1472       O  0.95915946  0.75829272  0.46267888    -0.72400
O1473       O  0.52788923  0.79420160  0.43255886    -0.72300
O1474       O  0.96018649  0.68626425  0.46221867    -0.72500
V1475       V  0.53257562  0.75918444  0.48111491     1.35200
V1476       V  0.99476808  0.74055066  0.44800374     1.35200
C1477       C  0.96837228  0.67772186  0.48451113     0.76900
C1478       C  0.55900957  0.82222856  0.44483005     0.77000
C1479       C  0.96618863  0.77291479  0.48544714     0.76900
C1480       C  0.56078358  0.72638887  0.44363690     0.76800
C1481       C  0.91504706  0.80329678  0.53563732     0.79700
N1482       N  0.88102292  0.79851013  0.52249910    -0.78600
C1483       C  0.87492246  0.78639192  0.49729208     0.82200
N1484       N  0.90300363  0.77876589  0.48512808    -0.78500
C1485       C  0.93735795  0.78381345  0.49802831     0.82300
N1486       N  0.94304201  0.79567857  0.52331651    -0.80300
C1487       C  0.93810443  0.86052755  0.72617567     0.79700
N1488       N  0.97282451  0.86624234  0.73894296    -0.78600
C1489       C  0.97901496  0.87790509  0.76425259     0.82200
N1490       N  0.95033792  0.88406763  0.77686818    -0.78500
C1491       C  0.91532786  0.87801032  0.76437475     0.82300
N1492       N  0.90953587  0.86668636  0.73898039    -0.80300
O1493       O  0.85400096  0.88331162  0.76571090    -0.72300
O1494       O  0.78549746  0.92137308  0.79595379    -0.72500
O1495       O  0.85427230  0.95565189  0.76541196    -0.72400
O1496       O  0.78553949  0.84892044  0.79626368    -0.72400
O1497       O  0.82557770  0.86857150  0.83041225    -0.72300
O1498       O  0.89330953  0.97577388  0.79999661    -0.72400
O1499       O  0.82463377  0.94047864  0.83050508    -0.72300
O1500       O  0.89403645  0.90376162  0.79986729    -0.72500
V1501       V  0.82055420  0.90269878  0.78152481     1.35200
V1502       V  0.85861151  0.92178463  0.81452733     1.35200
C1503       C  0.88629583  0.88816605  0.77733454     0.76900
C1504       C  0.79276247  0.93632863  0.81864621     0.77000
C1505       C  0.88619446  0.98343335  0.77719456     0.76900
C1506       C  0.79352515  0.84084332  0.81873956     0.76800
C1507       C  0.92020897  0.59370495  0.53397143     0.79700
N1508       N  0.88406937  0.56628959  0.52172110    -0.78600
C1509       C  0.87598264  0.57403295  0.49723064     0.82200
N1510       N  0.90410466  0.60968552  0.48493217    -0.78500
C1511       C  0.94032029  0.63732416  0.49689162     0.82300
N1512       N  0.94811980  0.62939332  0.52144894    -0.80300
C1513       C  0.94200832  0.56165682  0.72544579     0.79700
N1514       N  0.91221829  0.52738945  0.73828552    -0.78600
C1515       C  0.91592468  0.52265926  0.76417978     0.82200
N1516       N  0.95004167  0.55208717  0.77720498    -0.78500
C1517       C  0.97969474  0.58659940  0.76461321     0.82300
N1518       N  0.97560576  0.59106888  0.73881458    -0.80300
O1519       O  0.89780839  0.84371259  0.16400334    -0.72300
O1520       O  0.93695440  0.77581827  0.13379531    -0.72500
O1521       O  0.97012757  0.84420825  0.16454084    -0.72400
O1522       O  0.86414841  0.77504108  0.13351520    -0.72400
O1523       O  0.88388313  0.81465789  0.09914238    -0.72300
O1524       O  0.49017537  0.88394150  0.13021705    -0.72400
O1525       O  0.95672263  0.81566925  0.09952507    -0.72300
O1526       O  0.91760864  0.88330949  0.12961882    -0.72500
V1527       V  0.91761437  0.81040564  0.14826796     1.35200
V1528       V  0.93669017  0.84860598  0.11529263     1.35200
C1529       C  0.90227670  0.87581085  0.15219807     0.76900
C1530       C  0.95282531  0.78384672  0.11131193     0.77000
C1531       C  0.49771454  0.87645763  0.15297092     0.76900
C1532       C  0.85625014  0.78256807  0.11090108     0.76800
C1533       C  0.81955626  0.90512369  0.39395871     0.79700
N1534       N  0.81291874  0.86989601  0.40653286    -0.78600
C1535       C  0.79901175  0.86245176  0.43135808     0.82200
N1536       N  0.79125934  0.89028280  0.44372585    -0.78500
C1537       C  0.79783153  0.92566273  0.43142798     0.82300
N1538       N  0.81172777  0.93286554  0.40650964    -0.80300
C1539       C  0.87704607  0.92990554  0.20320818     0.79700
N1540       N  0.88193006  0.90040174  0.19048776    -0.78600
C1541       C  0.89245176  0.90528867  0.16495590     0.82200
N1542       N  0.89880249  0.94025752  0.15216241    -0.78500
C1543       C  0.89368545  0.96972225  0.16464223     0.82300
N1544       N  0.88304557  0.96449301  0.19011292    -0.80300
O1545       O  0.75463768  0.55550713  0.46390929    -0.72300
O1546       O  0.79061100  0.48607746  0.43254787    -0.72500
O1547       O  0.71862917  0.98702095  0.43362902    -0.72400
O1548       O  0.82657100  0.55449251  0.46294230    -0.72400
O1549       O  0.80751836  0.01477303  0.49724527    -0.72300
O1550       O  0.69937527  0.94749574  0.46803651    -0.72400
O1551       O  0.77124466  0.94628591  0.46686990    -0.72300
O1552       O  0.73568752  0.01621468  0.49841278    -0.72500
V1553       V  0.77222635  0.52000493  0.44893353     1.35200
V1554       V  0.75381275  0.98195947  0.48198045     1.35200
C1555       C  0.73964594  0.54806859  0.48658869     0.76900
C1556       C  0.78649345  0.95403214  0.44423254     0.77000
C1557       C  0.69089868  0.95535442  0.44564967     0.76900
C1558       C  0.83521353  0.54635153  0.48520187     0.76800
C1559       C  0.70973801  0.60010354  0.53660150     0.79700
N1560       N  0.71692952  0.63523670  0.52363222    -0.78600
C1561       C  0.72955950  0.64117973  0.49847733     0.82200
N1562       N  0.73592961  0.61224900  0.48640958    -0.78500
C1563       C  0.72897695  0.57708759  0.49917001     0.82300
N1564       N  0.71587190  0.57107222  0.52425450    -0.80300
C1565       C  0.64269288  0.56510260  0.72628311     0.79700
N1566       N  0.63616984  0.52987231  0.73884741    -0.78600
C1567       C  0.62470500  0.52369195  0.76421691     0.82200
N1568       N  0.61874721  0.55243442  0.77692518    -0.78500
C1569       C  0.62517374  0.58772054  0.76459640     0.82300
N1570       N  0.63713155  0.59396480  0.73928345    -0.80300
O1571       O  0.61898369  0.64860249  0.76600070    -0.72300
O1572       O  0.58038760  0.71660035  0.79623733    -0.72500
O1573       O  0.65296605  0.71694494  0.79654451    -0.72400
O1574       O  0.54648291  0.64790200  0.76591478    -0.72400
O1575       O  0.52643516  0.60872243  0.80048012    -0.72300
O1576       O  0.63348181  0.67681508  0.83068945    -0.72400
O1577       O  0.56143288  0.67753087  0.83084834    -0.72300
O1578       O  0.59867275  0.60838430  0.80010507    -0.72500
V1579       V  0.59930987  0.68176515  0.78187197     1.35200
V1580       V  0.58037563  0.64363381  0.81487638     1.35200
C1581       C  0.61445953  0.61638916  0.77759684     0.76900
C1582       C  0.56526046  0.70925317  0.81886915     0.77000
C1583       C  0.66111686  0.70888212  0.81897032     0.76900
C1584       C  0.51874774  0.61599219  0.77774524     0.76800
C1585       C  0.63388559  0.00468386  0.63947167    -0.18300
C1586       C  0.64276474  0.00952424  0.61289136    -0.20500
C1587       C  0.66569094  0.54956248  0.60192335     0.20100
C1588       C  0.67914967  0.58518349  0.61780150    -0.03400
C1589       C  0.67025547  0.58030409  0.64464691    -0.06500
C1590       C  0.64784961  0.53980751  0.65554810     0.20400
C1591       C  0.68388564  0.61591113  0.66056302     0.18600
C1592       C  0.70640685  0.65602923  0.64952029    -0.18000
C1593       C  0.71525725  0.66086297  0.62292301    -0.20200
C1594       C  0.70172274  0.62567220  0.60690504     0.20100
C1595       C  0.71069966  0.63024150  0.58024754    -0.33200
C1596       C  0.69808991  0.59488683  0.56439405     0.00800
C1597       C  0.67550256  0.55465214  0.57537863    -0.24500
C1598       C  0.63957380  0.53519707  0.68227627    -0.30000
C1599       C  0.65281267  0.57050397  0.69825232     0.06400
C1600       C  0.67477557  0.61077399  0.68721906    -0.27800
H1601       H  0.61628156  0.97335907  0.64749975     0.11200
H1602       H  0.63190348  0.98187749  0.60094023     0.12300
H1603       H  0.71721932  0.68368070  0.66146226     0.11400
H1604       H  0.73278567  0.69218084  0.61488086     0.10600
H1605       H  0.72843481  0.66138748  0.57195930     0.16000
H1606       H  0.66534734  0.02738938  0.56321012     0.11900
H1607       H  0.62194722  0.00407485  0.69054171     0.14800
H1608       H  0.68513853  0.63810173  0.69943158     0.14500
C1609       C  0.84350042  0.98162256  0.31092051    -0.18300
C1610       C  0.85044776  0.98439533  0.28413253    -0.20500
C1611       C  0.85616266  0.95415163  0.27126364     0.20100
C1612       C  0.85529907  0.92103084  0.28552421    -0.03400
C1613       C  0.84839815  0.91829924  0.31255284    -0.06500
C1614       C  0.84220388  0.94859782  0.32527532     0.20400
C1615       C  0.84722743  0.88499651  0.32676529     0.18600
C1616       C  0.85344999  0.85503750  0.31395990    -0.18000
C1617       C  0.86031205  0.85776241  0.28717711    -0.20200
C1618       C  0.86106382  0.89048238  0.27277669     0.20100
C1619       C  0.86751743  0.89318764  0.24587362    -0.33200
C1620       C  0.86847548  0.92615198  0.23147618     0.00800
C1621       C  0.86272994  0.95649527  0.24439031    -0.24500
C1622       C  0.83408383  0.94492379  0.35202067    -0.29100
C1623       C  0.83181553  0.91118493  0.36622544     0.06400
C1624       C  0.83912618  0.88175755  0.35345434    -0.27800
H1625       H  0.83885780  0.00517983  0.32038757     0.11200
H1626       H  0.85114699  0.01008663  0.27345588     0.12300
H1627       H  0.85270152  0.82931517  0.32463249     0.11400
H1628       H  0.86484620  0.83414089  0.27770045     0.10600
H1629       H  0.87215667  0.86975314  0.23622684     0.16000
H1630       H  0.86348582  0.98211744  0.23358406     0.11900
H1631       H  0.82860733  0.96786024  0.36160865     0.14800
H1632       H  0.83770478  0.85572382  0.36414102     0.14500
C1633       C  0.87100870  0.50841155  0.61398904    -0.18300
C1634       C  0.87332089  0.50439141  0.64085691    -0.20500
C1635       C  0.90564107  0.53654177  0.65530432     0.20100
C1636       C  0.93645456  0.57274221  0.64247159    -0.03400
C1637       C  0.93414936  0.57678317  0.61533413    -0.06500
C1638       C  0.90099043  0.54464847  0.60110872     0.20400
C1639       C  0.96450686  0.61330295  0.60254741     0.18600
C1640       C  0.99739219  0.64503703  0.61692405    -0.18000
C1641       C  0.99973119  0.64099625  0.64380982    -0.20200
C1642       C  0.96919454  0.60516739  0.65677895     0.20100
C1643       C  0.97065259  0.60138178  0.68381370    -0.33200
C1644       C  0.93973324  0.56559878  0.69686354     0.00800
C1645       C  0.90745736  0.53322099  0.68235885    -0.24500
C1646       C  0.89770362  0.54971480  0.57437868    -0.29100
C1647       C  0.92691505  0.58668479  0.56157351     0.06400
C1648       C  0.96082217  0.61793262  0.57576026    -0.27800
H1649       H  0.84487514  0.98375202  0.60336465     0.11200
H1650       H  0.84897645  0.97668293  0.65042610     0.12300
H1651       H  0.02103832  0.67323829  0.60742069     0.11400
H1652       H  0.02519069  0.66610274  0.65449884     0.10600
H1653       H  0.99587996  0.62648376  0.69466034     0.16000
H1654       H  0.88367635  0.50533103  0.69207529     0.11900
H1655       H  0.87163579  0.52521942  0.56371585     0.14800
H1656       H  0.98367265  0.64649585  0.56617826     0.14500
C1657       C  0.88062181  0.86376434  0.63989303    -0.18300
C1658       C  0.87811978  0.85655352  0.61312763    -0.20500
C1659       C  0.90006122  0.83876759  0.60172348     0.20100
C1660       C  0.92490632  0.82829592  0.61739638    -0.03400
C1661       C  0.92736581  0.83548754  0.64438021    -0.06500
C1662       C  0.90505584  0.85323422  0.65568369     0.20400
C1663       C  0.95226531  0.82502924  0.66001148     0.18600
C1664       C  0.47416501  0.80721974  0.64862583    -0.18000
C1665       C  0.47166900  0.80002289  0.62189801    -0.20200
C1666       C  0.94727347  0.81058250  0.60613390     0.20100
C1667       C  0.94467187  0.80346032  0.57933487    -0.33200
C1668       C  0.91959815  0.81332993  0.56362087     0.00800
C1669       C  0.89743606  0.83105749  0.57496196    -0.24500
C1670       C  0.90786239  0.86043510  0.68253170    -0.29100
C1671       C  0.93313090  0.85061520  0.69815792     0.06400
C1672       C  0.95509579  0.83281005  0.68673061    -0.27800
H1673       H  0.86345053  0.87758019  0.64824098     0.11200
H1674       H  0.85898656  0.86486178  0.60134639     0.12300
H1675       H  0.49332540  0.79892909  0.66039976     0.11400
H1676       H  0.48886838  0.78623810  0.61354775     0.10600
H1677       H  0.46150232  0.78938447  0.57081991     0.16000
H1678       H  0.87809752  0.83884457  0.56296806     0.11900
H1679       H  0.89112648  0.87453651  0.69114410     0.14800
H1680       H  0.47448312  0.82499173  0.69865472     0.14500
C1681       C  0.65711529  0.65617432  0.28584394    -0.18300
C1682       C  0.66072421  0.66315885  0.31263132    -0.20500
C1683       C  0.62894386  0.66490328  0.32644081     0.20100
C1684       C  0.59282330  0.65883472  0.31321253    -0.03400
C1685       C  0.58918385  0.65179910  0.28615363    -0.06500
C1686       C  0.62163405  0.65076393  0.27241255     0.20400
C1687       C  0.55332340  0.64626340  0.27284065     0.18600
C1688       C  0.52116431  0.64718135  0.28674922    -0.18000
C1689       C  0.52481258  0.65424848  0.31355658    -0.20200
C1690       C  0.56068415  0.66051059  0.32691950     0.20100
C1691       C  0.56541594  0.66943346  0.35359899    -0.33200
C1692       C  0.60202185  0.67697629  0.36679925     0.00800
C1693       C  0.63318045  0.67365853  0.35310536    -0.24500
C1694       C  0.61813857  0.64440160  0.24548758    -0.29100
C1695       C  0.58255621  0.63894883  0.23197096     0.06400
C1696       C  0.55027163  0.63996338  0.24587660    -0.27800
H1697       H  0.68223048  0.65529500  0.27559598     0.11200
H1698       H  0.68863375  0.66766785  0.32251125     0.12300
H1699       H  0.99329847  0.64275580  0.27685633     0.11400
H1700       H  0.99976633  0.65527122  0.32378987     0.10600
H1701       H  0.54099455  0.67152478  0.36389562     0.16000
H1702       H  0.66143463  0.67913193  0.36298598     0.11900
H1703       H  0.64318688  0.64357902  0.23510564     0.14800
H1704       H  0.52254870  0.63554810  0.23579551     0.14500
C1705       C  0.51319528  0.87277949  0.29105131    -0.18300
C1706       C  0.51751683  0.87007088  0.31788381    -0.20500
C1707       C  0.55652391  0.89442453  0.32994569     0.20100
C1708       C  0.59128554  0.92255590  0.31491939    -0.03400
C1709       C  0.58696448  0.92517726  0.28784972    -0.06500
C1710       C  0.54784240  0.89980729  0.27581603     0.20400
C1711       C  0.62196426  0.95270502  0.27280178     0.18600
C1712       C  0.66072873  0.97783004  0.28492242    -0.18000
C1713       C  0.66500910  0.97523425  0.31172386    -0.20200
C1714       C  0.63058547  0.94747049  0.32683701     0.20100
C1715       C  0.63508117  0.94348804  0.35354168    -0.33200
C1716       C  0.60098491  0.91439885  0.36853038     0.00800
C1717       C  0.56161311  0.89045867  0.35663177    -0.24500
C1718       C  0.54416972  0.90163499  0.24876088    -0.29100
C1719       C  0.57909996  0.92868547  0.23358593     0.06400
C1720       C  0.61776539  0.95436630  0.24586280    -0.27800
H1721       H  0.48285349  0.85334510  0.28217086     0.11200
H1722       H  0.49043438  0.84852165  0.32916000     0.12300
H1723       H  0.68786698  0.99921493  0.27362833     0.11400
H1724       H  0.69537934  0.99459503  0.32058994     0.10600
H1725       H  0.66558578  0.96204587  0.36243653     0.16000
H1726       H  0.53505509  0.86821341  0.36803933     0.11900
H1727       H  0.51409005  0.88214737  0.23957577     0.14800
H1728       H  0.64487244  0.97543976  0.23442171     0.14500
C1729       C  0.01927270  0.81805394  0.97972593    -0.18300
C1730       C  0.02511183  0.82125339  0.95280189    -0.20500
C1731       C  0.02362095  0.78806478  0.93865192     0.20100
C1732       C  0.51658779  0.75148467  0.95178498    -0.03400
C1733       C  0.51085664  0.74832581  0.97894053    -0.06500
C1734       C  0.01190460  0.78164368  0.99295610     0.20400
C1735       C  0.50366420  0.71164076  0.99199957     0.18600
C1736       C  0.50256065  0.67862123  0.97790667    -0.18000
C1737       C  0.50821621  0.68174277  0.95102159    -0.20200
C1738       C  0.51513837  0.71795627  0.93779912     0.20100
C1739       C  0.52089695  0.72124847  0.91086239    -0.33200
C1740       C  0.52829566  0.75770322  0.89758156     0.00800
C1741       C  0.02930460  0.79090519  0.91164752    -0.24500
C1742       C  0.00482973  0.77764126  0.01985185    -0.29100
C1743       C  0.49665857  0.74070418  0.03294449     0.06400
C1744       C  0.49690571  0.70819734  0.01885127    -0.27800
H1745       H  0.02027596  0.84398444  0.99018599     0.11200
H1746       H  0.03064995  0.84963497  0.94303387     0.12300
H1747       H  0.49705193  0.65024027  0.98766588     0.11400
H1748       H  0.50710771  0.65576625  0.94055332     0.10600
H1749       H  0.52000517  0.69544429  0.90029838     0.16000
H1750       H  0.03516857  0.81926545  0.90170169     0.11900
H1751       H  0.00495068  0.80302563  0.03046928     0.14800
H1752       H  0.49071242  0.67959085  0.02861719     0.14500
C1753       C  0.81283014  0.47596969  0.95306729    -0.18300
C1754       C  0.81749510  0.48426633  0.97971559    -0.20500
C1755       C  0.79143898  0.49587011  0.99261137     0.20100
C1756       C  0.76030613  0.49906349  0.97851802    -0.03400
C1757       C  0.75563578  0.49074925  0.95160862    -0.06500
C1758       C  0.78207129  0.47920449  0.93885376     0.20400
C1759       C  0.72436947  0.99370053  0.93756958     0.18600
C1760       C  0.69829820  0.00526850  0.95049065    -0.18000
C1761       C  0.70296188  0.01354381  0.97714814    -0.20200
C1762       C  0.73374399  0.01033563  0.99135113     0.20100
C1763       C  0.73859342  0.01857868  0.01807590    -0.33200
C1764       C  0.76979414  0.01581797  0.03227545     0.00800
C1765       C  0.79606901  0.50445160  0.01931383    -0.24500
C1766       C  0.77727058  0.47099765  0.91213026    -0.29100
C1767       C  0.74620671  0.47392664  0.89787101     0.06400
C1768       C  0.71978087  0.98518587  0.91084076    -0.27800
H1769       H  0.83332790  0.46705305  0.94356160     0.11200
H1770       H  0.84152799  0.48162810  0.99024298     0.12300
H1771       H  0.67425976  0.00791008  0.93997279     0.11400
H1772       H  0.68246180  0.02244488  0.98666462     0.10600
H1773       H  0.71834359  0.02769682  0.02771213     0.16000
H1774       H  0.82013838  0.50211144  0.03002259     0.11900
H1775       H  0.79755248  0.46188974  0.90252265     0.14800
H1776       H  0.69572938  0.98754282  0.90012624     0.14500
C1777       C  0.82858175  0.80654576  0.97738350    -0.18300
C1778       C  0.82464581  0.81000003  0.95061712    -0.20500
C1779       C  0.78950623  0.77932050  0.93723843     0.20100
C1780       C  0.75814176  0.74465032  0.95092354    -0.03400
C1781       C  0.76209945  0.74118181  0.97796108    -0.06500
C1782       C  0.79744818  0.77236008  0.99122678     0.20400
C1783       C  0.73066927  0.70663330  0.99169623     0.18600
C1784       C  0.69566636  0.67578143  0.97827708    -0.18000
C1785       C  0.69170552  0.67926388  0.95148620    -0.20200
C1786       C  0.72269314  0.71363403  0.93765254     0.20100
C1787       C  0.71857713  0.71781478  0.91086994    -0.33200
C1788       C  0.74935501  0.75274751  0.89711488     0.00800
C1789       C  0.78498120  0.78307149  0.91048841    -0.24500
C1790       C  0.80118536  0.76879976  0.01807421    -0.29100
C1791       C  0.77013519  0.73436777  0.03196777     0.06400
C1792       C  0.73485073  0.70346196  0.01857017    -0.27800
H1793       H  0.85597010  0.83070217  0.98727700     0.11200
H1794       H  0.84901878  0.83680354  0.94039206     0.12300
H1795       H  0.67128847  0.64900137  0.98851239     0.11400
H1796       H  0.66428939  0.65514442  0.94160120     0.10600
H1797       H  0.69098665  0.69415565  0.90087089     0.16000
H1798       H  0.80898406  0.81008186  0.90020651     0.11900
H1799       H  0.82857938  0.79277279  0.02807139     0.14800
H1800       H  0.71071692  0.67670148  0.02896702     0.14500
loop_ 
_geom_bond_atom_site_label_1 
_geom_bond_atom_site_label_2 
_geom_bond_distance 
_geom_bond_site_symmetry_2 
_ccdc_geom_bond_type 
C1            N2   1.359       .  A
C1            N6   1.360       .  A
C1          C441   1.484       .  S
N2            C3   1.357       .  A
C3            N4   1.357       .  A
C3          C116   1.464       .  S
N4            C5   1.357       .  A
C5            N6   1.358       .  A
C5          C182   1.466       .  S
C7            N8   1.360       .  A
C7           N12   1.361       .  A
C7          C438   1.486       .  S
N8            C9   1.358       .  A
C9           N10   1.356       .  A
C9          C233   1.465       .  S
N10          C11   1.356       .  A
C11          N12   1.359       .  A
C11         C156   1.467       .  S
O13          V21   1.898       .  S
O13          C23   1.264       .  A
O14          V21   1.900       .  S
O14          C24   1.265       .  A
O15          V21   1.893       .  S
O15          C25   1.262       .  A
O16          V21   1.893       .  S
O16          C26   1.262       .  A
O17          V22   1.901       .  S
O17          C26   1.265       .  A
O18          V22   1.902       .  S
O18          C25   1.265       .  A
O19          V22   1.897       .  S
O19          C24   1.263       .  A
O20          V22   1.896       .  S
O20          C23   1.263       .  A
V21          V22   2.089       .  T
C23         C133   1.464       .  S
C24          C93   1.466       .  S
C25         C211   1.465       .  S
C26         C185   1.463       .  S
O27          V35   1.899       .  S
O27          C37   1.264       .  A
O28          V35   1.897       .  S
O28          C38   1.263       .  A
O29          V35   1.896       .  S
O29          C39   1.263       .  A
O30          V35   1.897       .  S
O30          C40   1.264       .  A
O31          V36   1.898       .  S
O31          C40   1.263       .  A
O32          V36   1.898       .  S
O32          C39   1.264       .  A
O33          V36   1.899       .  S
O33          C38   1.264       .  A
O34          V36   1.901       .  S
O34          C37   1.265       .  A
V35          V36   2.089       .  T
C37          C51   1.468       .  S
C38        C1039   1.465   1_455  S
C39          C61   1.464       .  S
C40         C667   1.465       .  S
C41         N492   1.360       .  A
C41         N496   1.359       .  A
C41         C414   1.484       .  S
N42          C43   1.359       .  A
N42         C491   1.360       .  A
C43          N44   1.358       .  A
C43          C76   1.467       .  S
N44          C45   1.358       .  A
C45          N46   1.357       .  A
C45         C114   1.467       .  S
N46         C491   1.359       .  A
C47         N498   1.359       .  A
C47         N502   1.361       .  A
C47         C417   1.485       .  S
N48          C49   1.357       .  A
N48         C497   1.359       .  A
C49          N50   1.357       .  A
C49         C154   1.466       .  S
N50          C51   1.358       .  A
C51          N52   1.360       .  A
N52         C497   1.361       .  A
C53          N54   1.360       .  A
C53          N58   1.360       .  A
C53         C393   1.485       .  S
N54         C955   1.357       .  A
C55          N56   1.356       .  A
C55         N954   1.357       .  A
C55          C78   1.465       .  S
N56          C57   1.356       .  A
C57         N958   1.359       .  A
C57         C180   1.466       .  S
N58         C957   1.359       .  A
C59          N60   1.358       .  A
C59          N64   1.360       .  A
C59         C390   1.482       .  S
N60          C61   1.357       .  A
C61          N62   1.358       .  A
N62          C63   1.358       .  A
C63          N64   1.357       .  A
C63         C232   1.466       .  S
O65          V73   1.897       .  S
O65         C975   1.263       .  A
O66          V73   1.898       .  S
O66          C76   1.264       .  A
O67          V73   1.896       .  S
O67          C77   1.263       .  A
O68          V73   1.897       .  S
O68          C78   1.263       .  A
O69          V74   1.900       .  S
O69          C78   1.264       .  A
O70          V74   1.900       .  S
O70          C77   1.264       .  A
O71          V74   1.901       .  S
O71          C76   1.264       .  A
O72         V974   1.900       .  S
O72          C75   1.264       .  A
V73          V74   2.089       .  T
V74         O972   1.900       .  S
C75          C99   1.466   1_655  S
C75         O965   1.263       .  A
C77         C643   1.465   1_545  S
C79          N80   1.359       .  A
C79          N84   1.360       .  A
C79         C366   1.482       .  S
N80          C81   1.357       .  A
C81          N82   1.358       .  A
C81         C207   1.468       .  S
N82          C83   1.359       .  A
C83          N84   1.358       .  A
C83         C128   1.468       .  S
C85          N86   1.358       .  A
C85          N90   1.360       .  A
C85         C369   1.482       .  S
N86          C87   1.356       .  A
C87          N88   1.357       .  A
C87         C565   1.463       .  S
N88          C89   1.357       .  A
C89          N90   1.360       .  A
C89         C181   1.465   1_455  S
C91          N92   1.361       .  A
C91          N96   1.360       .  A
C91         C342   1.486       .  S
N92          C93   1.358       .  A
C93          N94   1.356       .  A
N94          C95   1.356       .  A
C95          N96   1.359       .  A
C95         C130   1.466       .  S
C97          N98   1.359       .  A
C97         N102   1.360       .  A
C97         C345   1.486       .  S
N98          C99   1.358       .  A
C99         N100   1.357       .  A
N100        C101   1.357       .  A
C101        N102   1.358       .  A
C101        C113   1.466       .  S
O103        V111   1.899       .  S
O103        C113   1.264       .  A
O104        V111   1.898       .  S
O104        C114   1.264       .  A
O105        V111   1.897       .  S
O105        C115   1.263       .  A
O106        V111   1.895       .  S
O106        C116   1.263       .  A
O107        V112   1.899       .  S
O107        C116   1.264       .  A
O108        V112   1.897       .  S
O108        C115   1.264       .  A
O109        V112   1.900       .  S
O109        C114   1.264       .  A
O110        V112   1.899       .  S
O110        C113   1.264       .  A
V111        V112   2.089       .  T
C115        C537   1.463   1_545  S
O117        V125   1.899       .  S
O117       C1027   1.263   1_455  A
O118        V125   1.899       .  S
O118        C128   1.264       .  A
O119        V125   1.900   1_655  S
O119       C1029   1.264       .  A
O120        V125   1.899       .  S
O120        C130   1.264       .  A
O121       V1026   1.899   1_455  S
O121        C130   1.263       .  A
O122        V126   1.898       .  S
O122        C129   1.263       .  A
O123       V1026   1.902   1_455  S
O123        C128   1.265       .  A
O124        V126   1.901       .  S
O124        C127   1.265       .  A
V125       V1026   2.089   1_455  T
V126       O1021   1.899       .  S
V126       O1023   1.902       .  S
V126       V1025   2.089       .  T
C127        C161   1.467       .  S
C127       O1017   1.263       .  A
C129        C135   1.466       .  S
C129       O1019   1.264       .  A
C131        N132   1.357       .  A
C131        N136   1.359       .  A
C131        C318   1.478       .  S
N132        C133   1.356       .  A
C133        N134   1.358       .  A
N134        C135   1.358       .  A
C135        N136   1.357       .  A
C137        N138   1.359       .  A
C137        N142   1.358       .  A
C137        C321   1.478       .  S
N138        C139   1.357       .  A
C139        N140   1.357       .  A
C139        C938   1.465       .  S
N140        C141   1.357       .  A
C141        N142   1.358       .  A
C141        C153   1.464       .  S
O143        V151   1.896       .  S
O143        C153   1.263       .  A
O144        V151   1.899       .  S
O144        C154   1.264       .  A
O145        V151   1.901       .  S
O145        C155   1.264       .  A
O146        V151   1.900       .  S
O146        C156   1.265       .  A
O147        V152   1.900       .  S
O147        C156   1.264       .  A
O148        V152   1.900       .  S
O148        C155   1.264       .  A
O149        V152   1.898       .  S
O149        C154   1.264       .  A
O150        V152   1.899       .  S
O150        C153   1.264       .  A
V151        V152   2.089       .  T
C155        C615   1.469       .  S
C157        N158   1.360       .  A
C157        N162   1.361       .  A
C157        C297   1.486       .  S
N158        C159   1.357       .  A
C159        N160   1.357       .  A
C159        C208   1.467       .  S
N160        C161   1.357       .  A
C161        N162   1.360       .  A
C163        N164   1.361       .  A
C163        N168   1.358       .  A
C163        C294   1.485       .  S
N164        C165   1.360       .  A
C165        N166   1.359       .  A
C165        C605   1.469   1_545  S
N166        C167   1.358       .  A
C167        N168   1.356       .  A
C167       C1134   1.465       .  S
O169        V177   1.900       .  S
O169        C179   1.264       .  A
O170        V177   1.902       .  S
O170        C180   1.265       .  A
O171        V177   1.896       .  S
O171       C1081   1.263       .  A
O172        V177   1.897       .  S
O172        C182   1.263       .  A
O173        V178   1.901       .  S
O173        C182   1.265       .  A
O174       V1078   1.900       .  S
O174        C181   1.265       .  A
O175        V178   1.896       .  S
O175        C180   1.262       .  A
O176        V178   1.896       .  S
O176        C179   1.263       .  A
V177        V178   2.089       .  T
V178       O1074   1.900       .  S
C179        C191   1.465       .  S
C181       O1071   1.263       .  A
C183        N184   1.358       .  A
C183        N188   1.360       .  A
C183        C273   1.482       .  S
N184        C185   1.355       .  A
C185        N186   1.357       .  A
N186        C187   1.357       .  A
C187        N188   1.359       .  A
C187        C206   1.466       .  S
C189        N190   1.360       .  A
C189        N194   1.358       .  A
C189        C270   1.482       .  S
N190        C191   1.358       .  A
C191        N192   1.358       .  A
N192        C193   1.357       .  A
C193        N194   1.356       .  A
C193        C527   1.465       .  S
O195        V203   1.896       .  S
O195        C205   1.263       .  A
O196        V203   1.898   1_565  S
O196        C656   1.263       .  A
O197        V653   1.899       .  S
O197        C207   1.264       .  A
O198        V203   1.900       .  S
O198        C208   1.264       .  A
O199        V204   1.900       .  S
O199        C658   1.264       .  A
O200        V204   1.901       .  S
O200        C207   1.264       .  A
O201        V204   1.900       .  S
O201        C206   1.265       .  A
O202        V204   1.902       .  S
O202        C655   1.264       .  A
V203        O647   1.899   1_545  S
V203        V654   2.089   1_545  T
V204        V653   2.089       .  T
C205        C213   1.466       .  S
C205        O652   1.264       .  A
C206        O646   1.263       .  A
C208        O649   1.264       .  A
C209        N210   1.359       .  A
C209        N214   1.361       .  A
C209        C246   1.480       .  S
N210        C211   1.358       .  A
C211        N212   1.356       .  A
N212        C213   1.357       .  A
C213        N214   1.359       .  A
C215        N216   1.359       .  A
C215        N220   1.360       .  A
C215        C249   1.480       .  S
N216        C217   1.358       .  A
C217        N218   1.357       .  A
C217        C490   1.465   1_545  S
N218        C219   1.356       .  A
C219        N220   1.359       .  A
C219        C231   1.466       .  S
O221        V229   1.896       .  S
O221        C231   1.262       .  A
O222        V229   1.896       .  S
O222        C232   1.263       .  A
O223        V229   1.899       .  S
O223        C233   1.264       .  A
O224        V229   1.897       .  S
O224        C234   1.264       .  A
O225        V230   1.899       .  S
O225        C234   1.263       .  A
O226        V230   1.898       .  S
O226        C233   1.263       .  A
O227        V230   1.902       .  S
O227        C232   1.265       .  A
O228        V230   1.902       .  S
O228        C231   1.265       .  A
V229        V230   2.089       .  T
C234       C1067   1.465   1_455  S
C235        C236   1.399       .  A
C235        C690   1.403       .  A
C235        H251   1.084       .  S
C236        C687   1.403       .  A
C236        H252   1.083       .  S
C237        C247   1.403       .  A
C237        C238   1.412       .  A
C237        C686   1.403       .  A
C238        C244   1.411       .  A
C238        C239   1.412       .  A
C239        C241   1.412       .  A
C239        C240   1.411       .  A
C240        C248   1.402       .  A
C240        C685   1.403       .  A
C241        C250   1.404       .  A
C241        C242   1.404       .  A
C242        C243   1.399       .  A
C242        H253   1.083       .  S
C243        C244   1.404       .  A
C243        H254   1.084       .  S
C244        C245   1.403       .  A
C245        C246   1.408       .  A
C245        H255   1.084       .  S
C246        C247   1.406       .  A
C247        H706   1.084       .  S
C248        C249   1.407       .  A
C248        H707   1.085       .  S
C249        C250   1.407       .  A
C250        H258   1.084       .  S
H256        C697   1.084       .  S
H257        C698   1.085       .  S
C259        C260   1.398       .  A
C259        C264   1.403       .  A
C259        H275   1.084       .  S
C260        C261   1.404       .  A
C260        H276   1.083       .  S
C261        C271   1.401       .  A
C261        C262   1.410       .  A
C262        C268   1.412       .  A
C262        C263   1.410       .  A
C263        C265   1.410       .  A
C263        C264   1.412       .  A
C264        C272   1.402       .  A
C265        C274   1.400       .  A
C265        C266   1.403       .  A
C266        C267   1.398       .  A
C266        H277   1.083       .  S
C267        C268   1.403       .  A
C267        H278   1.084       .  S
C268        C269   1.402       .  A
C269        C270   1.407       .  A
C269        H279   1.084       .  S
C270        C271   1.409       .  A
C271        H280   1.083       .  S
C272        C273   1.408       .  A
C272        H281   1.084       .  S
C273        C274   1.408       .  A
C274        H282   1.084       .  S
C283        C284   1.398       .  A
C283        C288   1.403       .  A
C283        H749   1.083   1_545  S
C284        C285   1.403       .  A
C284        H750   1.084   1_545  S
C285        C295   1.403       .  A
C285        C286   1.412       .  A
C286        C292   1.410       .  A
C286        C287   1.412       .  A
C287        C289   1.411       .  A
C287        C288   1.410       .  A
C288        C296   1.402       .  A
C289        C298   1.404       .  A
C289        C290   1.404       .  A
C290        C291   1.399       .  A
C290        H301   1.084       .  S
C291        C292   1.404       .  A
C291        H302   1.083       .  S
C292        C293   1.403       .  A
C293        C294   1.410       .  A
C293        H303   1.084       .  S
C294        C295   1.407       .  A
C295        H304   1.084       .  S
C296        C297   1.409       .  A
C296        H305   1.084       .  S
C297        C298   1.409       .  A
C298        H306   1.084       .  S
H299        C733   1.083       .  S
H300        C734   1.084       .  S
C307        C308   1.399       .  A
C307        C312   1.404       .  A
C307        H323   1.083       .  S
C308        C309   1.404       .  A
C308        H324   1.084       .  S
C309        C319   1.402       .  A
C309        C310   1.411       .  A
C310        C316   1.411       .  A
C310        C311   1.410       .  A
C311        C313   1.411       .  A
C311        C312   1.411       .  A
C312        C320   1.403       .  A
C313        C322   1.400       .  A
C313       C1214   1.403       .  A
C314        C315   1.397       .  A
C314       C1213   1.403       .  A
C314        H325   1.084       .  S
C315       C1216   1.403       .  A
C315        H326   1.083       .  S
C316        C317   1.400       .  A
C316       C1215   1.403       .  A
C317        C318   1.406       .  A
C317       H1227   1.084       .  S
C318        C319   1.407       .  A
C319        H328   1.084       .  S
C320        C321   1.408       .  A
C320        H329   1.084       .  S
C321        C322   1.405       .  A
C322       H1230   1.084       .  S
H327       C1217   1.084       .  S
H330       C1222   1.084       .  S
C331        C332   1.398       .  A
C331        C336   1.403       .  A
C331        H347   1.083       .  S
C332        C333   1.403       .  A
C332        H348   1.084       .  S
C333        C343   1.402       .  A
C333        C334   1.411       .  A
C334        C340   1.411       .  A
C334        C335   1.412       .  A
C335        C337   1.411       .  A
C335        C336   1.411       .  A
C336        C344   1.402       .  A
C337        C346   1.404       .  A
C337        C338   1.404       .  A
C338        C339   1.400       .  A
C338       H1249   1.084   1_455  S
C339        C340   1.404       .  A
C339       H1250   1.083       .  S
C340        C341   1.404       .  A
C341        C342   1.409       .  A
C341        H351   1.084       .  S
C342        C343   1.408       .  A
C343        H352   1.084       .  S
C344        C345   1.408       .  A
C344        H353   1.084       .  S
C345        C346   1.409       .  A
C346        H354   1.084       .  S
H349       C1238   1.084       .  S
H350       C1239   1.083       .  S
C355        C356   1.400       .  A
C355        C360   1.404       .  A
C355        H371   1.083   1_455  S
C356        C357   1.404       .  A
C356        H372   1.084   1_455  S
C357        C367   1.404       .  A
C357        C358   1.411       .  A
C358        C364   1.411       .  A
C358        C359   1.411       .  A
C359        C361   1.411       .  A
C359        C360   1.411       .  A
C360        C368   1.404       .  A
C361        C370   1.400       .  A
C361        C362   1.403       .  A
C362        C363   1.397       .  A
C362        H373   1.084       .  S
C363        C364   1.403       .  A
C363        H374   1.083       .  S
C364        C365   1.401       .  A
C365        C366   1.408       .  A
C365        H375   1.084       .  S
C366        C367   1.408       .  A
C367        H376   1.084       .  S
C368        C369   1.408       .  A
C368        H377   1.084       .  S
C369        C370   1.407       .  A
C370        H378   1.084       .  S
C379        C380   1.400       .  A
C379        C384   1.404       .  A
C379        H395   1.084       .  S
C380        C381   1.404       .  A
C380        H396   1.083       .  S
C381        C391   1.403       .  A
C381       C1282   1.411       .  A
C382        C388   1.411       .  A
C382        C383   1.411       .  A
C382       C1281   1.411       .  A
C383        C385   1.410       .  A
C383       C1284   1.411       .  A
C384        C392   1.404   1_556  A
C384       C1283   1.411       .  A
C385        C394   1.400   1_456  A
C385        C386   1.403       .  A
C386        C387   1.397       .  A
C386        H397   1.084   1_455  S
C387        C388   1.402       .  A
C387        H398   1.084       .  S
C388        C389   1.400       .  A
C389        C390   1.406       .  A
C389        H399   1.084       .  S
C390       C1291   1.409       .  A
C391       C1290   1.409       .  A
C391        H400   1.084       .  S
C392       C1293   1.409       .  A
C392        H401   1.084       .  S
C393        C394   1.408       .  A
C393       C1292   1.409   1_655  A
C394        H402   1.084       .  S
C403        C404   1.399       .  A
C403        C408   1.404       .  A
C403        H419   1.083       .  S
C404        C405   1.403       .  A
C404        H420   1.084       .  S
C405        C415   1.403   1_566  A
C405        C406   1.412       .  A
C406        C407   1.412       .  A
C406        C862   1.410   1_565  A
C407        C408   1.410       .  A
C407        C859   1.412       .  A
C408        C416   1.402       .  A
C409        C418   1.404       .  A
C409        C410   1.403       .  A
C409        C857   1.412       .  A
C410        C411   1.399       .  A
C410        H421   1.084       .  S
C411        C412   1.404       .  A
C411        H422   1.083       .  S
C412        C413   1.402   1_556  A
C412        C856   1.410       .  A
C413        C414   1.409       .  A
C413        H423   1.084       .  S
C414        C865   1.408       .  A
C415        C864   1.408       .  A
C415        H424   1.084       .  S
C416        C417   1.409       .  A
C416        H425   1.084       .  S
C417        C868   1.408       .  A
C418        C867   1.408       .  A
C418        H426   1.084       .  S
C427        C428   1.398       .  A
C427        C432   1.403       .  A
C427        H443   1.084       .  S
C428        C429   1.403       .  A
C428        H444   1.083       .  S
C429        C439   1.402       .  A
C429        C430   1.411       .  A
C430        C436   1.411       .  A
C430        C431   1.412       .  A
C431        C433   1.411       .  A
C431        C432   1.411       .  A
C432        C440   1.401   1_556  A
C433        C442   1.403   1_556  A
C433        C434   1.404       .  A
C434        C435   1.399       .  A
C434        H445   1.083       .  S
C435        C436   1.404       .  A
C435        H446   1.084       .  S
C436        C437   1.404       .  A
C437        C438   1.410       .  A
C437        H447   1.084       .  S
C438        C439   1.408       .  A
C439        H448   1.084       .  S
C440        C441   1.408       .  A
C440        H449   1.084       .  S
C441        C442   1.409       .  A
C442        H450   1.084       .  S
C451        N452   1.359       .  A
C451        N456   1.360       .  A
C451        C891   1.485       .  S
N452        C453   1.357       .  A
C453        N454   1.357       .  A
C453        C566   1.464       .  S
N454        C455   1.358       .  A
C455        N456   1.358       .  A
C455        C632   1.466       .  S
C457        N458   1.360       .  A
C457        N462   1.361       .  A
C457        C888   1.486       .  S
N458        C459   1.358       .  A
C459        N460   1.356       .  A
C459        C683   1.465       .  S
N460        C461   1.356       .  A
C461        N462   1.359       .  A
C461        C606   1.467       .  S
O463        V471   1.898       .  S
O463        C473   1.265       .  A
O464        V471   1.900       .  S
O464        C474   1.265       .  A
O465        V471   1.893       .  S
O465        C475   1.262       .  A
O466        V471   1.893       .  S
O466        C476   1.262       .  A
O467        V472   1.901       .  S
O467        C476   1.265       .  A
O468        V472   1.902       .  S
O468        C475   1.265       .  A
O469        V472   1.897       .  S
O469        C474   1.263       .  A
O470        V472   1.896       .  S
O470        C473   1.263       .  A
V471        V472   2.089       .  T
C473        C583   1.464       .  S
C474        C543   1.466       .  S
C475        C661   1.465       .  S
C476        C635   1.463       .  S
O477        V485   1.899       .  S
O477        C487   1.263       .  A
O478        V485   1.897       .  S
O478        C488   1.263       .  A
O479        V485   1.896       .  S
O479        C489   1.264       .  A
O480        V485   1.898       .  S
O480        C490   1.264       .  A
O481        V486   1.898       .  S
O481        C490   1.263       .  A
O482        V486   1.898       .  S
O482        C489   1.264       .  A
O483        V486   1.900       .  S
O483        C488   1.264       .  A
O484        V486   1.901       .  S
O484        C487   1.265       .  A
V485        V486   2.089       .  T
C487        C501   1.468       .  S
C488       C1489   1.465   1_455  S
C489        C511   1.464       .  S
C491        C864   1.484       .  S
N492        C493   1.359       .  A
C493        N494   1.358       .  A
C493        C526   1.467       .  S
N494        C495   1.358       .  A
C495        N496   1.357       .  A
C495        C564   1.467       .  S
C497        C867   1.485       .  S
N498        C499   1.357       .  A
C499        N500   1.357       .  A
C499        C604   1.466       .  S
N500        C501   1.358       .  A
C501        N502   1.360       .  A
C503        N504   1.360       .  A
C503        N508   1.360       .  A
C503        C843   1.485       .  S
N504       C1405   1.357       .  A
C505       N1404   1.357       .  A
C505        N506   1.356       .  A
C505        C528   1.465       .  S
N506        C507   1.356       .  A
C507       N1408   1.359       .  A
C507        C630   1.466       .  S
N508       C1407   1.359       .  A
C509        N510   1.358       .  A
C509        N514   1.360       .  A
C509        C840   1.482       .  S
N510        C511   1.357       .  A
C511        N512   1.358       .  A
N512        C513   1.358       .  A
C513        N514   1.357       .  A
C513        C682   1.466       .  S
O515        V523   1.897       .  S
O515       C1425   1.263       .  A
O516        V523   1.898       .  S
O516        C526   1.264       .  A
O517        V523   1.896       .  S
O517        C527   1.263       .  A
O518        V523   1.897       .  S
O518        C528   1.264       .  A
O519        V524   1.899       .  S
O519        C528   1.264       .  A
O520        V524   1.900       .  S
O520        C527   1.264       .  A
O521        V524   1.901       .  S
O521        C526   1.264       .  A
O522       V1424   1.900       .  S
O522        C525   1.264       .  A
V523        V524   2.089       .  T
V524       O1422   1.900       .  S
C525        C549   1.466   1_655  S
C525       O1415   1.263       .  A
C529        N530   1.359       .  A
C529        N534   1.360       .  A
C529        C816   1.482       .  S
N530        C531   1.357       .  A
C531        N532   1.358       .  A
C531        C657   1.468       .  S
N532        C533   1.359       .  A
C533        N534   1.358       .  A
C533        C578   1.468       .  S
C535        N536   1.358       .  A
C535        N540   1.360       .  A
C535        C819   1.482       .  S
N536        C537   1.356       .  A
C537        N538   1.357       .  A
N538        C539   1.357       .  A
C539        N540   1.360       .  A
C539        C631   1.465   1_455  S
C541        N542   1.361       .  A
C541        N546   1.361       .  A
C541        C792   1.487       .  S
N542        C543   1.358       .  A
C543        N544   1.356       .  A
N544        C545   1.356       .  A
C545        N546   1.359       .  A
C545        C580   1.466       .  S
C547        N548   1.359       .  A
C547        N552   1.360       .  A
C547        C795   1.486       .  S
N548        C549   1.358       .  A
C549        N550   1.357       .  A
N550        C551   1.357       .  A
C551        N552   1.358       .  A
C551        C563   1.466       .  S
O553        V561   1.899       .  S
O553        C563   1.264       .  A
O554        V561   1.898       .  S
O554        C564   1.264       .  A
O555        V561   1.897       .  S
O555        C565   1.263       .  A
O556        V561   1.895       .  S
O556        C566   1.263       .  A
O557        V562   1.899       .  S
O557        C566   1.264       .  A
O558        V562   1.897       .  S
O558        C565   1.264       .  A
O559        V562   1.900       .  S
O559        C564   1.264       .  A
O560        V562   1.899       .  S
O560        C563   1.264       .  A
V561        V562   2.089       .  T
O567        V575   1.898       .  S
O567       C1477   1.263   1_455  A
O568        V575   1.899       .  S
O568        C578   1.264       .  A
O569        V575   1.900   1_655  S
O569       C1479   1.264       .  A
O570        V575   1.899       .  S
O570        C580   1.264       .  A
O571       V1476   1.899   1_455  S
O571        C580   1.263       .  A
O572        V576   1.898       .  S
O572        C579   1.263       .  A
O573       V1476   1.902   1_455  S
O573        C578   1.265       .  A
O574        V576   1.901       .  S
O574        C577   1.265       .  A
V575       V1476   2.089   1_455  T
V576       O1471   1.899       .  S
V576       O1473   1.902       .  S
V576       V1475   2.089       .  T
C577        C611   1.467       .  S
C577       O1467   1.263       .  A
C579        C585   1.466       .  S
C579       O1469   1.264       .  A
C581        N582   1.357       .  A
C581        N586   1.359       .  A
C581        C768   1.477       .  S
N582        C583   1.356       .  A
C583        N584   1.358       .  A
N584        C585   1.358       .  A
C585        N586   1.357       .  A
C587        N588   1.359       .  A
C587        N592   1.358       .  A
C587        C771   1.478       .  S
N588        C589   1.357       .  A
C589        N590   1.357       .  A
C589       C1388   1.465       .  S
N590        C591   1.357       .  A
C591        N592   1.358       .  A
C591        C603   1.464       .  S
O593        V601   1.896       .  S
O593        C603   1.263       .  A
O594        V601   1.899       .  S
O594        C604   1.264       .  A
O595        V601   1.901       .  S
O595        C605   1.264       .  A
O596        V601   1.900       .  S
O596        C606   1.265       .  A
O597        V602   1.900       .  S
O597        C606   1.264       .  A
O598        V602   1.900       .  S
O598        C605   1.264       .  A
O599        V602   1.899       .  S
O599        C604   1.264       .  A
O600        V602   1.899       .  S
O600        C603   1.264       .  A
V601        V602   2.089       .  T
C607        N608   1.360       .  A
C607        N612   1.361       .  A
C607        C747   1.486       .  S
N608        C609   1.357       .  A
C609        N610   1.357       .  A
C609        C658   1.467       .  S
N610        C611   1.357       .  A
C611        N612   1.359       .  A
C613        N614   1.361       .  A
C613        N618   1.358       .  A
C613        C744   1.485       .  S
N614        C615   1.360       .  A
C615        N616   1.359       .  A
N616        C617   1.358       .  A
C617        N618   1.356       .  A
C617       C1584   1.465       .  S
O619        V627   1.901       .  S
O619        C629   1.265       .  A
O620        V627   1.902       .  S
O620        C630   1.265       .  A
O621        V627   1.896       .  S
O621       C1531   1.263       .  A
O622        V627   1.897       .  S
O622        C632   1.263       .  A
O623        V628   1.902       .  S
O623        C632   1.265       .  A
O624       V1528   1.900       .  S
O624        C631   1.265       .  A
O625        V628   1.896       .  S
O625        C630   1.262       .  A
O626        V628   1.896       .  S
O626        C629   1.263       .  A
V627        V628   2.089       .  T
V628       O1524   1.900       .  S
C629        C641   1.465       .  S
C631       O1521   1.263       .  A
C633        N634   1.358       .  A
C633        N638   1.360       .  A
C633        C723   1.482       .  S
N634        C635   1.355       .  A
C635        N636   1.357       .  A
N636        C637   1.357       .  A
C637        N638   1.359       .  A
C637        C656   1.467       .  S
C639        N640   1.360       .  A
C639        N644   1.358       .  A
C639        C720   1.482       .  S
N640        C641   1.358       .  A
C641        N642   1.358       .  A
N642        C643   1.357       .  A
C643        N644   1.356       .  A
O645        V653   1.896       .  S
O645        C655   1.263       .  A
O646        V653   1.898       .  S
O647        C657   1.264       .  A
O648        V653   1.900       .  S
O648        C658   1.264       .  A
O649        V654   1.900   1_545  S
O650        V654   1.901       .  S
O650        C657   1.264       .  A
O651        V654   1.900       .  S
O651        C656   1.265       .  A
O652        V654   1.902   1_545  S
C655        C663   1.466       .  S
C659        N660   1.359       .  A
C659        N664   1.361       .  A
C659        C696   1.480       .  S
N660        C661   1.358       .  A
C661        N662   1.356       .  A
N662        C663   1.357       .  A
C663        N664   1.359       .  A
C665        N666   1.359       .  A
C665        N670   1.360       .  A
C665        C699   1.480       .  S
N666        C667   1.358       .  A
C667        N668   1.357       .  A
N668        C669   1.356       .  A
C669        N670   1.359       .  A
C669        C681   1.466       .  S
O671        V679   1.896       .  S
O671        C681   1.262       .  A
O672        V679   1.896       .  S
O672        C682   1.263       .  A
O673        V679   1.899       .  S
O673        C683   1.264       .  A
O674        V679   1.897       .  S
O674        C684   1.264       .  A
O675        V680   1.899       .  S
O675        C684   1.263       .  A
O676        V680   1.898       .  S
O676        C683   1.263       .  A
O677        V680   1.902       .  S
O677        C682   1.265       .  A
O678        V680   1.902       .  S
O678        C681   1.265       .  A
V679        V680   2.089       .  T
C684       C1517   1.465   1_455  S
C685        C686   1.399       .  A
C685        H701   1.084   1_545  S
C686        H702   1.083   1_545  S
C687        C697   1.403       .  A
C687        C688   1.412       .  A
C688        C694   1.411       .  A
C688        C689   1.412       .  A
C689        C691   1.412       .  A
C689        C690   1.411       .  A
C690        C698   1.402       .  A
C691        C700   1.404       .  A
C691        C692   1.404       .  A
C692        C693   1.399       .  A
C692        H703   1.083       .  S
C693        C694   1.404       .  A
C693        H704   1.084       .  S
C694        C695   1.403       .  A
C695        C696   1.408       .  A
C695        H705   1.084       .  S
C696        C697   1.406       .  A
C698        C699   1.407       .  A
C699        C700   1.407       .  A
C700        H708   1.084       .  S
C709        C710   1.398       .  A
C709        C714   1.403       .  A
C709        H725   1.084   1_565  S
C710        C711   1.404       .  A
C710        H726   1.083   1_565  S
C711        C721   1.401       .  A
C711        C712   1.410       .  A
C712        C718   1.412       .  A
C712        C713   1.410       .  A
C713        C715   1.410       .  A
C713        C714   1.412       .  A
C714        C722   1.402       .  A
C715        C724   1.400       .  A
C715        C716   1.403       .  A
C716        C717   1.398       .  A
C716        H727   1.083       .  S
C717        C718   1.403       .  A
C717        H728   1.084       .  S
C718        C719   1.402       .  A
C719        C720   1.407       .  A
C719        H729   1.084       .  S
C720        C721   1.409       .  A
C721        H730   1.083       .  S
C722        C723   1.407       .  A
C722        H731   1.084       .  S
C723        C724   1.408       .  A
C724        H732   1.084       .  S
C733        C734   1.398       .  A
C733        C738   1.404       .  A
C734        C735   1.403       .  A
C735        C745   1.403       .  A
C735        C736   1.412       .  A
C736        C742   1.410       .  A
C736        C737   1.412       .  A
C737        C739   1.411       .  A
C737        C738   1.410       .  A
C738        C746   1.402       .  A
C739        C748   1.404       .  A
C739        C740   1.404       .  A
C740        C741   1.399       .  A
C740        H751   1.084       .  S
C741        C742   1.404       .  A
C741        H752   1.083       .  S
C742        C743   1.403       .  A
C743        C744   1.410       .  A
C743        H753   1.084       .  S
C744        C745   1.407       .  A
C745        H754   1.084       .  S
C746        C747   1.409       .  A
C746        H755   1.084       .  S
C747        C748   1.409       .  A
C748        H756   1.084       .  S
C757        C758   1.399       .  A
C757        C762   1.404       .  A
C757        H773   1.083       .  S
C758        C759   1.404       .  A
C758        H774   1.084       .  S
C759        C769   1.402       .  A
C759        C760   1.411       .  A
C760        C766   1.411       .  A
C760        C761   1.410       .  A
C761        C763   1.411       .  A
C761        C762   1.411       .  A
C762        C770   1.403       .  A
C763        C772   1.400       .  A
C763       C1664   1.403       .  A
C764       C1663   1.403       .  A
C764        C765   1.397       .  A
C764        H775   1.084       .  S
C765       C1666   1.403       .  A
C765        H776   1.083       .  S
C766       C1665   1.403       .  A
C766        C767   1.400       .  A
C767        C768   1.406       .  A
C767       H1677   1.084       .  S
C768        C769   1.407       .  A
C769        H778   1.084       .  S
C770        C771   1.408       .  A
C770        H779   1.084       .  S
C771        C772   1.405       .  A
C772       H1680   1.084       .  S
H777       C1667   1.084       .  S
H780       C1672   1.084       .  S
C781        C782   1.398       .  A
C781        C786   1.403       .  A
C781        H797   1.083       .  S
C782        C783   1.403       .  A
C782        H798   1.084       .  S
C783        C793   1.402       .  A
C783        C784   1.411       .  A
C784        C790   1.411       .  A
C784        C785   1.412       .  A
C785        C787   1.411       .  A
C785        C786   1.411       .  A
C786        C794   1.402       .  A
C787        C796   1.404       .  A
C787        C788   1.404       .  A
C788        C789   1.400       .  A
C788       H1699   1.084   1_455  S
C789        C790   1.404       .  A
C789       H1700   1.083   1_455  S
C790        C791   1.404       .  A
C791        C792   1.409       .  A
C791        H801   1.083       .  S
C792        C793   1.408       .  A
C793        H802   1.084       .  S
C794        C795   1.408       .  A
C794        H803   1.084       .  S
C795        C796   1.409       .  A
C796        H804   1.084       .  S
H799       C1688   1.084       .  S
H800       C1689   1.083       .  S
C805        C806   1.400       .  A
C805        C810   1.404       .  A
C805        H821   1.083   1_455  S
C806        C807   1.404       .  A
C806        H822   1.084   1_455  S
C807        C817   1.404       .  A
C807        C808   1.411       .  A
C808        C814   1.411       .  A
C808        C809   1.411       .  A
C809        C811   1.411       .  A
C809        C810   1.411       .  A
C810        C818   1.404       .  A
C811        C820   1.400       .  A
C811        C812   1.403       .  A
C812        C813   1.397       .  A
C812        H823   1.084       .  S
C813        C814   1.403       .  A
C813        H824   1.083       .  S
C814        C815   1.401       .  A
C815        C816   1.407       .  A
C815        H825   1.084       .  S
C816        C817   1.408       .  A
C817        H826   1.084       .  S
C818        C819   1.408       .  A
C818        H827   1.084       .  S
C819        C820   1.407       .  A
C820        H828   1.084       .  S
C829        C830   1.400       .  A
C829        C834   1.404       .  A
C829        H845   1.084       .  S
C830        C831   1.404       .  A
C830        H846   1.083       .  S
C831        C841   1.403       .  A
C831       C1732   1.411       .  A
C832       C1731   1.411       .  A
C832        C838   1.411       .  A
C832        C833   1.411       .  A
C833        C835   1.410       .  A
C833       C1734   1.411       .  A
C834       C1733   1.411       .  A
C834        C842   1.404   1_556  A
C835        C844   1.400   1_456  A
C835        C836   1.403       .  A
C836        C837   1.397       .  A
C836        H847   1.083   1_455  S
C837        C838   1.402       .  A
C837        H848   1.084       .  S
C838        C839   1.400       .  A
C839        C840   1.406       .  A
C839        H849   1.084       .  S
C840       C1741   1.409       .  A
C841       C1740   1.409       .  A
C841        H850   1.084       .  S
C842       C1743   1.409       .  A
C842        H851   1.084       .  S
C843       C1742   1.409   1_655  A
C843        C844   1.408       .  A
C844        H852   1.084       .  S
C853        C854   1.399       .  A
C853        C858   1.404       .  A
C853        H869   1.083       .  S
C854        C855   1.403       .  A
C854        H870   1.084       .  S
C855        C865   1.403   1_556  A
C855        C856   1.412       .  A
C856        C857   1.412       .  A
C857        C858   1.410       .  A
C858        C866   1.402       .  A
C859        C868   1.404       .  A
C859        C860   1.403   1_565  A
C860        C861   1.399       .  A
C860        H871   1.084       .  S
C861        C862   1.404       .  A
C861        H872   1.083       .  S
C862        C863   1.402   1_556  A
C863        C864   1.409       .  A
C863        H873   1.084       .  S
C865        H874   1.084       .  S
C866        C867   1.409       .  A
C866        H875   1.084       .  S
C868        H876   1.084       .  S
C877        C878   1.398       .  A
C877        C882   1.403       .  A
C877        H893   1.084       .  S
C878        C879   1.403       .  A
C878        H894   1.083       .  S
C879        C889   1.402       .  A
C879        C880   1.411       .  A
C880        C886   1.411       .  A
C880        C881   1.412       .  A
C881        C883   1.411       .  A
C881        C882   1.411       .  A
C882        C890   1.402   1_556  A
C883        C892   1.403   1_556  A
C883        C884   1.404       .  A
C884        C885   1.399       .  A
C884        H895   1.083       .  S
C885        C886   1.404       .  A
C885        H896   1.084       .  S
C886        C887   1.404       .  A
C887        C888   1.410       .  A
C887        H897   1.084       .  S
C888        C889   1.408       .  A
C889        H898   1.084       .  S
C890        C891   1.408       .  A
C890        H899   1.084       .  S
C891        C892   1.409       .  A
C892        H900   1.084       .  S
C901        N902   1.359       .  A
C901        N906   1.360       .  A
C901       C1341   1.484       .  S
N902        C903   1.357       .  A
C903        N904   1.357       .  A
C903       C1016   1.464       .  S
N904        C905   1.357       .  A
C905        N906   1.358       .  A
C905       C1082   1.466       .  S
C907        N908   1.360       .  A
C907        N912   1.361       .  A
C907       C1338   1.486       .  S
N908        C909   1.358       .  A
C909        N910   1.356       .  A
C909       C1133   1.465       .  S
N910        C911   1.356       .  A
C911        N912   1.359       .  A
C911       C1056   1.467       .  S
O913        V921   1.898       .  S
O913        C923   1.264       .  A
O914        V921   1.900       .  S
O914        C924   1.265       .  A
O915        V921   1.893       .  S
O915        C925   1.262       .  A
O916        V921   1.893       .  S
O916        C926   1.262       .  A
O917        V922   1.901       .  S
O917        C926   1.265       .  A
O918        V922   1.902       .  S
O918        C925   1.265       .  A
O919        V922   1.897       .  S
O919        C924   1.263       .  A
O920        V922   1.896       .  S
O920        C923   1.263       .  A
V921        V922   2.089       .  T
C923       C1033   1.464       .  S
C924        C993   1.466       .  S
C925       C1111   1.465       .  S
C926       C1085   1.463       .  S
O927        V935   1.899       .  S
O927        C937   1.264       .  A
O928        V935   1.897       .  S
O928        C938   1.263       .  A
O929        V935   1.896       .  S
O929        C939   1.263       .  A
O930        V935   1.897       .  S
O930        C940   1.264       .  A
O931        V936   1.898       .  S
O931        C940   1.263       .  A
O932        V936   1.898       .  S
O932        C939   1.264       .  A
O933        V936   1.899       .  S
O933        C938   1.264       .  A
O934        V936   1.901       .  S
O934        C937   1.265       .  A
V935        V936   2.089       .  T
C937        C951   1.468       .  S
C939        C961   1.464       .  S
C940       C1567   1.465       .  S
C941       N1392   1.360       .  A
C941       N1396   1.359       .  A
C941       C1314   1.484       .  S
N942       C1391   1.360       .  A
N942        C943   1.359       .  A
C943        N944   1.358       .  A
C943        C976   1.467       .  S
N944        C945   1.358       .  A
C945        N946   1.357       .  A
C945       C1014   1.467       .  S
N946       C1391   1.359       .  A
C947       N1398   1.359       .  A
C947       N1402   1.361       .  A
C947       C1317   1.485       .  S
N948       C1397   1.359       .  A
N948        C949   1.357       .  A
C949        N950   1.357       .  A
C949       C1054   1.466       .  S
N950        C951   1.358       .  A
C951        N952   1.360       .  A
N952       C1397   1.361       .  A
C953        N954   1.360       .  A
C953        N958   1.360       .  A
C953       C1293   1.485       .  S
C955        N956   1.356       .  A
C955        C978   1.465       .  S
N956        C957   1.356       .  A
C957       C1080   1.466       .  S
C959        N960   1.358       .  A
C959        N964   1.360       .  A
C959       C1290   1.482       .  S
N960        C961   1.357       .  A
C961        N962   1.358       .  A
N962        C963   1.358       .  A
C963        N964   1.357       .  A
C963       C1132   1.466       .  S
O965        V973   1.897       .  S
O966        V973   1.898       .  S
O966        C976   1.264       .  A
O967        V973   1.896       .  S
O967        C977   1.263       .  A
O968        V973   1.897       .  S
O968        C978   1.263       .  A
O969        V974   1.900       .  S
O969        C978   1.264       .  A
O970        V974   1.900       .  S
O970        C977   1.264       .  A
O971        V974   1.901       .  S
O971        C976   1.264       .  A
O972        C975   1.264       .  A
V973        V974   2.089       .  T
C975        C999   1.466       .  S
C977       C1543   1.465   1_545  S
C979        N980   1.359       .  A
C979        N984   1.360       .  A
C979       C1266   1.482       .  S
N980        C981   1.357       .  A
C981        N982   1.358       .  A
C981       C1107   1.468       .  S
N982        C983   1.359       .  A
C983        N984   1.358       .  A
C983       C1028   1.468       .  S
C985        N986   1.358       .  A
C985        N990   1.360       .  A
C985       C1269   1.482       .  S
N986        C987   1.356       .  A
C987        N988   1.357       .  A
C987       C1465   1.463       .  S
N988        C989   1.357       .  A
C989        N990   1.360       .  A
C989       C1081   1.465       .  S
C991        N992   1.361       .  A
C991        N996   1.360       .  A
C991       C1242   1.486       .  S
N992        C993   1.358       .  A
C993        N994   1.356       .  A
N994        C995   1.356       .  A
C995        N996   1.359       .  A
C995       C1030   1.466       .  S
C997        N998   1.359       .  A
C997       N1002   1.360       .  A
C997       C1245   1.486       .  S
N998        C999   1.358       .  A
C999       N1000   1.357       .  A
N1000      C1001   1.357       .  A
C1001      N1002   1.358       .  A
C1001      C1013   1.466       .  S
O1003      V1011   1.899       .  S
O1003      C1013   1.264       .  A
O1004      V1011   1.898       .  S
O1004      C1014   1.264       .  A
O1005      V1011   1.897       .  S
O1005      C1015   1.263       .  A
O1006      V1011   1.895       .  S
O1006      C1016   1.263       .  A
O1007      V1012   1.899       .  S
O1007      C1016   1.264       .  A
O1008      V1012   1.897       .  S
O1008      C1015   1.264       .  A
O1009      V1012   1.900       .  S
O1009      C1014   1.264       .  A
O1010      V1012   1.899       .  S
O1010      C1013   1.264       .  A
V1011      V1012   2.089       .  T
C1015      C1437   1.463   1_545  S
O1017      V1025   1.899       .  S
O1018      V1025   1.899       .  S
O1018      C1028   1.264       .  A
O1019      V1025   1.900       .  S
O1020      V1025   1.899       .  S
O1020      C1030   1.264       .  A
O1021      C1030   1.263       .  A
O1022      V1026   1.898       .  S
O1022      C1029   1.263       .  A
O1023      C1028   1.265       .  A
O1024      V1026   1.901       .  S
O1024      C1027   1.265       .  A
C1027      C1061   1.467       .  S
C1029      C1035   1.466       .  S
C1031      N1032   1.357       .  A
C1031      N1036   1.359       .  A
C1031      C1218   1.478       .  S
N1032      C1033   1.356       .  A
C1033      N1034   1.358       .  A
N1034      C1035   1.358       .  A
C1035      N1036   1.357       .  A
C1037      N1038   1.359       .  A
C1037      N1042   1.358       .  A
C1037      C1221   1.478       .  S
N1038      C1039   1.357       .  A
C1039      N1040   1.357       .  A
N1040      C1041   1.357       .  A
C1041      N1042   1.358       .  A
C1041      C1053   1.464       .  S
O1043      V1051   1.896       .  S
O1043      C1053   1.263       .  A
O1044      V1051   1.899       .  S
O1044      C1054   1.264       .  A
O1045      V1051   1.901       .  S
O1045      C1055   1.264       .  A
O1046      V1051   1.900       .  S
O1046      C1056   1.265       .  A
O1047      V1052   1.900       .  S
O1047      C1056   1.264       .  A
O1048      V1052   1.900       .  S
O1048      C1055   1.264       .  A
O1049      V1052   1.898       .  S
O1049      C1054   1.264       .  A
O1050      V1052   1.899       .  S
O1050      C1053   1.264       .  A
V1051      V1052   2.089       .  T
C1055      C1515   1.469       .  S
C1057      N1058   1.360       .  A
C1057      N1062   1.361       .  A
C1057      C1197   1.486       .  S
N1058      C1059   1.357       .  A
C1059      N1060   1.357       .  A
C1059      C1108   1.467       .  S
N1060      C1061   1.357       .  A
C1061      N1062   1.360       .  A
C1063      N1064   1.361       .  A
C1063      N1068   1.358       .  A
C1063      C1194   1.485       .  S
N1064      C1065   1.360       .  A
C1065      N1066   1.359       .  A
C1065      C1505   1.469   1_545  S
N1066      C1067   1.358       .  A
C1067      N1068   1.356       .  A
O1069      V1077   1.900       .  S
O1069      C1079   1.264       .  A
O1070      V1077   1.902       .  S
O1070      C1080   1.265       .  A
O1071      V1077   1.896       .  S
O1072      V1077   1.897       .  S
O1072      C1082   1.263       .  A
O1073      V1078   1.901       .  S
O1073      C1082   1.265       .  A
O1074      C1081   1.265       .  A
O1075      V1078   1.896       .  S
O1075      C1080   1.262       .  A
O1076      V1078   1.896       .  S
O1076      C1079   1.263       .  A
V1077      V1078   2.089       .  T
C1079      C1091   1.465       .  S
C1083      N1084   1.358       .  A
C1083      N1088   1.360       .  A
C1083      C1173   1.482       .  S
N1084      C1085   1.355       .  A
C1085      N1086   1.357       .  A
N1086      C1087   1.357       .  A
C1087      N1088   1.359       .  A
C1087      C1106   1.466       .  S
C1089      N1090   1.360       .  A
C1089      N1094   1.358       .  A
C1089      C1170   1.482       .  S
N1090      C1091   1.358       .  A
C1091      N1092   1.358       .  A
N1092      C1093   1.357       .  A
C1093      N1094   1.356       .  A
C1093      C1427   1.465       .  S
O1095      V1103   1.896       .  S
O1095      C1105   1.263       .  A
O1096      V1103   1.898   1_565  S
O1096      C1556   1.263       .  A
O1097      V1553   1.899       .  S
O1097      C1107   1.264       .  A
O1098      V1103   1.900       .  S
O1098      C1108   1.264       .  A
O1099      V1104   1.900       .  S
O1099      C1558   1.264       .  A
O1100      V1104   1.901       .  S
O1100      C1107   1.264       .  A
O1101      V1104   1.900       .  S
O1101      C1106   1.265       .  A
O1102      V1104   1.902       .  S
O1102      C1555   1.264       .  A
V1103      O1547   1.899   1_545  S
V1103      V1554   2.089   1_545  T
V1104      V1553   2.089       .  T
C1105      C1113   1.466       .  S
C1105      O1552   1.264       .  A
C1106      O1546   1.263       .  A
C1108      O1549   1.264       .  A
C1109      N1110   1.359       .  A
C1109      N1114   1.361       .  A
C1109      C1146   1.480       .  S
N1110      C1111   1.358       .  A
C1111      N1112   1.356       .  A
N1112      C1113   1.357       .  A
C1113      N1114   1.359       .  A
C1115      N1116   1.359       .  A
C1115      N1120   1.360       .  A
C1115      C1149   1.480       .  S
N1116      C1117   1.358       .  A
C1117      N1118   1.357       .  A
C1117      C1390   1.465   1_545  S
N1118      C1119   1.356       .  A
C1119      N1120   1.359       .  A
C1119      C1131   1.466       .  S
O1121      V1129   1.896       .  S
O1121      C1131   1.262       .  A
O1122      V1129   1.896       .  S
O1122      C1132   1.263       .  A
O1123      V1129   1.899       .  S
O1123      C1133   1.264       .  A
O1124      V1129   1.897       .  S
O1124      C1134   1.264       .  A
O1125      V1130   1.899       .  S
O1125      C1134   1.263       .  A
O1126      V1130   1.898       .  S
O1126      C1133   1.263       .  A
O1127      V1130   1.902       .  S
O1127      C1132   1.265       .  A
O1128      V1130   1.902       .  S
O1128      C1131   1.265       .  A
V1129      V1130   2.089       .  T
C1135      C1136   1.399       .  A
C1135      C1590   1.404       .  A
C1135      H1151   1.084       .  S
C1136      C1587   1.403       .  A
C1136      H1152   1.083       .  S
C1137      C1586   1.403       .  A
C1137      C1147   1.403       .  A
C1137      C1138   1.412       .  A
C1138      C1144   1.411       .  A
C1138      C1139   1.412       .  A
C1139      C1141   1.412       .  A
C1139      C1140   1.411       .  A
C1140      C1585   1.403       .  A
C1140      C1148   1.402       .  A
C1141      C1150   1.404       .  A
C1141      C1142   1.404       .  A
C1142      C1143   1.399       .  A
C1142      H1153   1.083       .  S
C1143      C1144   1.404       .  A
C1143      H1154   1.084       .  S
C1144      C1145   1.403       .  A
C1145      C1146   1.408       .  A
C1145      H1155   1.084       .  S
C1146      C1147   1.406       .  A
C1147      H1606   1.084       .  S
C1148      C1149   1.407       .  A
C1148      H1607   1.085       .  S
C1149      C1150   1.407       .  A
C1150      H1158   1.084       .  S
H1156      C1597   1.084       .  S
H1157      C1598   1.084       .  S
C1159      C1160   1.398       .  A
C1159      C1164   1.403       .  A
C1159      H1175   1.084       .  S
C1160      C1161   1.404       .  A
C1160      H1176   1.083       .  S
C1161      C1171   1.401       .  A
C1161      C1162   1.410       .  A
C1162      C1168   1.412       .  A
C1162      C1163   1.410       .  A
C1163      C1165   1.410       .  A
C1163      C1164   1.412       .  A
C1164      C1172   1.402       .  A
C1165      C1174   1.400       .  A
C1165      C1166   1.403       .  A
C1166      C1167   1.398       .  A
C1166      H1177   1.083       .  S
C1167      C1168   1.403       .  A
C1167      H1178   1.084       .  S
C1168      C1169   1.402       .  A
C1169      C1170   1.407       .  A
C1169      H1179   1.084       .  S
C1170      C1171   1.409       .  A
C1171      H1180   1.084       .  S
C1172      C1173   1.408       .  A
C1172      H1181   1.084       .  S
C1173      C1174   1.408       .  A
C1174      H1182   1.084       .  S
C1183      C1184   1.398       .  A
C1183      C1188   1.403       .  A
C1183      H1649   1.084   1_545  S
C1184      C1185   1.403       .  A
C1184      H1650   1.084   1_545  S
C1185      C1195   1.403       .  A
C1185      C1186   1.412       .  A
C1186      C1192   1.410       .  A
C1186      C1187   1.412       .  A
C1187      C1189   1.411       .  A
C1187      C1188   1.410       .  A
C1188      C1196   1.402       .  A
C1189      C1198   1.404       .  A
C1189      C1190   1.404       .  A
C1190      C1191   1.399   1_655  A
C1190      H1201   1.084   1_655  S
C1191      C1192   1.404   1_455  A
C1191      H1202   1.083       .  S
C1192      C1193   1.403       .  A
C1193      C1194   1.410       .  A
C1193      H1203   1.084       .  S
C1194      C1195   1.407       .  A
C1195      H1204   1.084       .  S
C1196      C1197   1.409       .  A
C1196      H1205   1.084       .  S
C1197      C1198   1.409       .  A
C1198      H1206   1.084       .  S
H1199      C1633   1.083       .  S
H1200      C1634   1.084       .  S
C1207      C1208   1.399       .  A
C1207      C1212   1.404       .  A
C1207      H1223   1.083       .  S
C1208      C1209   1.404       .  A
C1208      H1224   1.084       .  S
C1209      C1219   1.402       .  A
C1209      C1210   1.411       .  A
C1210      C1216   1.411       .  A
C1210      C1211   1.410       .  A
C1211      C1213   1.411       .  A
C1211      C1212   1.411       .  A
C1212      C1220   1.403       .  A
C1213      C1222   1.400       .  A
C1214      C1215   1.397       .  A
C1214      H1225   1.084       .  S
C1215      H1226   1.083       .  S
C1216      C1217   1.400       .  A
C1217      C1218   1.406       .  A
C1218      C1219   1.407       .  A
C1219      H1228   1.084       .  S
C1220      C1221   1.408       .  A
C1220      H1229   1.084       .  S
C1221      C1222   1.405       .  A
C1231      C1232   1.398       .  A
C1231      C1236   1.403       .  A
C1231      H1247   1.083       .  S
C1232      C1233   1.403       .  A
C1232      H1248   1.084       .  S
C1233      C1243   1.402       .  A
C1233      C1234   1.411       .  A
C1234      C1240   1.411       .  A
C1234      C1235   1.412       .  A
C1235      C1237   1.411       .  A
C1235      C1236   1.411       .  A
C1236      C1244   1.402       .  A
C1237      C1246   1.404       .  A
C1237      C1238   1.404       .  A
C1238      C1239   1.400       .  A
C1239      C1240   1.404       .  A
C1240      C1241   1.404       .  A
C1241      C1242   1.409       .  A
C1241      H1251   1.083       .  S
C1242      C1243   1.408       .  A
C1243      H1252   1.084       .  S
C1244      C1245   1.408       .  A
C1244      H1253   1.084       .  S
C1245      C1246   1.409       .  A
C1246      H1254   1.084       .  S
C1255      C1256   1.400       .  A
C1255      C1260   1.404       .  A
C1255      H1271   1.083       .  S
C1256      C1257   1.404       .  A
C1256      H1272   1.084       .  S
C1257      C1267   1.404       .  A
C1257      C1258   1.411       .  A
C1258      C1264   1.411       .  A
C1258      C1259   1.411       .  A
C1259      C1261   1.411       .  A
C1259      C1260   1.411       .  A
C1260      C1268   1.404       .  A
C1261      C1270   1.400       .  A
C1261      C1262   1.403       .  A
C1262      C1263   1.397       .  A
C1262      H1273   1.084       .  S
C1263      C1264   1.403       .  A
C1263      H1274   1.083       .  S
C1264      C1265   1.401       .  A
C1265      C1266   1.408       .  A
C1265      H1275   1.084       .  S
C1266      C1267   1.408       .  A
C1267      H1276   1.084       .  S
C1268      C1269   1.408       .  A
C1268      H1277   1.084       .  S
C1269      C1270   1.407       .  A
C1270      H1278   1.084       .  S
C1279      C1280   1.400       .  A
C1279      C1284   1.404       .  A
C1279      H1295   1.084       .  S
C1280      C1281   1.404       .  A
C1280      H1296   1.083       .  S
C1281      C1291   1.403       .  A
C1282      C1288   1.411       .  A
C1282      C1283   1.411       .  A
C1283      C1285   1.410       .  A
C1284      C1292   1.404   1_556  A
C1285      C1294   1.400   1_556  A
C1285      C1286   1.403       .  A
C1286      C1287   1.397       .  A
C1286      H1297   1.083       .  S
C1287      C1288   1.402       .  A
C1287      H1298   1.084       .  S
C1288      C1289   1.400       .  A
C1289      C1290   1.406       .  A
C1289      H1299   1.084       .  S
C1291      H1300   1.084       .  S
C1292      H1301   1.084       .  S
C1293      C1294   1.408       .  A
C1294      H1302   1.084       .  S
C1303      C1304   1.399       .  A
C1303      C1308   1.404       .  A
C1303      H1319   1.083       .  S
C1304      C1305   1.403       .  A
C1304      H1320   1.084       .  S
C1305      C1315   1.403   1_566  A
C1305      C1306   1.412       .  A
C1306      C1762   1.410   1_565  A
C1306      C1307   1.412       .  A
C1307      C1759   1.412       .  A
C1307      C1308   1.410       .  A
C1308      C1316   1.402       .  A
C1309      C1757   1.412       .  A
C1309      C1318   1.404       .  A
C1309      C1310   1.403       .  A
C1310      C1311   1.399       .  A
C1310      H1321   1.084       .  S
C1311      C1312   1.404       .  A
C1311      H1322   1.083       .  S
C1312      C1756   1.410       .  A
C1312      C1313   1.402   1_556  A
C1313      C1314   1.409       .  A
C1313      H1323   1.084       .  S
C1314      C1765   1.408       .  A
C1315      C1764   1.408       .  A
C1315      H1324   1.084       .  S
C1316      C1317   1.409       .  A
C1316      H1325   1.084       .  S
C1317      C1768   1.408       .  A
C1318      C1767   1.408       .  A
C1318      H1326   1.084       .  S
C1327      C1328   1.398       .  A
C1327      C1332   1.403       .  A
C1327      H1343   1.084       .  S
C1328      C1329   1.403       .  A
C1328      H1344   1.083       .  S
C1329      C1339   1.402       .  A
C1329      C1330   1.411       .  A
C1330      C1336   1.411       .  A
C1330      C1331   1.412       .  A
C1331      C1333   1.411       .  A
C1331      C1332   1.411       .  A
C1332      C1340   1.401   1_556  A
C1333      C1342   1.403   1_556  A
C1333      C1334   1.404       .  A
C1334      C1335   1.399       .  A
C1334      H1345   1.083       .  S
C1335      C1336   1.404       .  A
C1335      H1346   1.084       .  S
C1336      C1337   1.404       .  A
C1337      C1338   1.410       .  A
C1337      H1347   1.084       .  S
C1338      C1339   1.408       .  A
C1339      H1348   1.084       .  S
C1340      C1341   1.408       .  A
C1340      H1349   1.084       .  S
C1341      C1342   1.409       .  A
C1342      H1350   1.084       .  S
C1351      N1352   1.359       .  A
C1351      N1356   1.360       .  A
C1351      C1791   1.485       .  S
N1352      C1353   1.357       .  A
C1353      N1354   1.357       .  A
C1353      C1466   1.464       .  S
N1354      C1355   1.358       .  A
C1355      N1356   1.358       .  A
C1355      C1532   1.466       .  S
C1357      N1358   1.360       .  A
C1357      N1362   1.361       .  A
C1357      C1788   1.486       .  S
N1358      C1359   1.358       .  A
C1359      N1360   1.356       .  A
C1359      C1583   1.465       .  S
N1360      C1361   1.356       .  A
C1361      N1362   1.359       .  A
C1361      C1506   1.467       .  S
O1363      V1371   1.898       .  S
O1363      C1373   1.265       .  A
O1364      V1371   1.900       .  S
O1364      C1374   1.265       .  A
O1365      V1371   1.893       .  S
O1365      C1375   1.262       .  A
O1366      V1371   1.893       .  S
O1366      C1376   1.262       .  A
O1367      V1372   1.901       .  S
O1367      C1376   1.265       .  A
O1368      V1372   1.902       .  S
O1368      C1375   1.265       .  A
O1369      V1372   1.897       .  S
O1369      C1374   1.263       .  A
O1370      V1372   1.896       .  S
O1370      C1373   1.263       .  A
V1371      V1372   2.089       .  T
C1373      C1483   1.464       .  S
C1374      C1443   1.466       .  S
C1375      C1561   1.465       .  S
C1376      C1535   1.463       .  S
O1377      V1385   1.899       .  S
O1377      C1387   1.263       .  A
O1378      V1385   1.897       .  S
O1378      C1388   1.263       .  A
O1379      V1385   1.896       .  S
O1379      C1389   1.264       .  A
O1380      V1385   1.898       .  S
O1380      C1390   1.264       .  A
O1381      V1386   1.898       .  S
O1381      C1390   1.263       .  A
O1382      V1386   1.898       .  S
O1382      C1389   1.264       .  A
O1383      V1386   1.900       .  S
O1383      C1388   1.264       .  A
O1384      V1386   1.901       .  S
O1384      C1387   1.265       .  A
V1385      V1386   2.089       .  T
C1387      C1401   1.468       .  S
C1389      C1411   1.464       .  S
C1391      C1764   1.484       .  S
N1392      C1393   1.359       .  A
C1393      N1394   1.358       .  A
C1393      C1426   1.467       .  S
N1394      C1395   1.358       .  A
C1395      N1396   1.357       .  A
C1395      C1464   1.467       .  S
C1397      C1767   1.485       .  S
N1398      C1399   1.357       .  A
C1399      N1400   1.357       .  A
C1399      C1504   1.466       .  S
N1400      C1401   1.358       .  A
C1401      N1402   1.360       .  A
C1403      N1404   1.360       .  A
C1403      N1408   1.360       .  A
C1403      C1743   1.485       .  S
C1405      N1406   1.356       .  A
C1405      C1428   1.465       .  S
N1406      C1407   1.356       .  A
C1407      C1530   1.466       .  S
C1409      N1410   1.358       .  A
C1409      N1414   1.360       .  A
C1409      C1740   1.482       .  S
N1410      C1411   1.357       .  A
C1411      N1412   1.358       .  A
N1412      C1413   1.358       .  A
C1413      N1414   1.357       .  A
C1413      C1582   1.466       .  S
O1415      V1423   1.897       .  S
O1416      V1423   1.898       .  S
O1416      C1426   1.264       .  A
O1417      V1423   1.896       .  S
O1417      C1427   1.263       .  A
O1418      V1423   1.897       .  S
O1418      C1428   1.264       .  A
O1419      V1424   1.899       .  S
O1419      C1428   1.264       .  A
O1420      V1424   1.900       .  S
O1420      C1427   1.264       .  A
O1421      V1424   1.901       .  S
O1421      C1426   1.264       .  A
O1422      C1425   1.264       .  A
V1423      V1424   2.089       .  T
C1425      C1449   1.466       .  S
C1429      N1430   1.359       .  A
C1429      N1434   1.360       .  A
C1429      C1716   1.482       .  S
N1430      C1431   1.357       .  A
C1431      N1432   1.358       .  A
C1431      C1557   1.468       .  S
N1432      C1433   1.359       .  A
C1433      N1434   1.358       .  A
C1433      C1478   1.468       .  S
C1435      N1436   1.358       .  A
C1435      N1440   1.360       .  A
C1435      C1719   1.482       .  S
N1436      C1437   1.356       .  A
C1437      N1438   1.357       .  A
N1438      C1439   1.357       .  A
C1439      N1440   1.360       .  A
C1439      C1531   1.465       .  S
C1441      N1442   1.361       .  A
C1441      N1446   1.360       .  A
C1441      C1692   1.487       .  S
N1442      C1443   1.358       .  A
C1443      N1444   1.356       .  A
N1444      C1445   1.356       .  A
C1445      N1446   1.359       .  A
C1445      C1480   1.466       .  S
C1447      N1448   1.359       .  A
C1447      N1452   1.360       .  A
C1447      C1695   1.486       .  S
N1448      C1449   1.358       .  A
C1449      N1450   1.357       .  A
N1450      C1451   1.357       .  A
C1451      N1452   1.358       .  A
C1451      C1463   1.466       .  S
O1453      V1461   1.899       .  S
O1453      C1463   1.264       .  A
O1454      V1461   1.898       .  S
O1454      C1464   1.264       .  A
O1455      V1461   1.897       .  S
O1455      C1465   1.263       .  A
O1456      V1461   1.895       .  S
O1456      C1466   1.263       .  A
O1457      V1462   1.899       .  S
O1457      C1466   1.264       .  A
O1458      V1462   1.897       .  S
O1458      C1465   1.264       .  A
O1459      V1462   1.900       .  S
O1459      C1464   1.264       .  A
O1460      V1462   1.899       .  S
O1460      C1463   1.264       .  A
V1461      V1462   2.089       .  T
O1467      V1475   1.898       .  S
O1468      V1475   1.899       .  S
O1468      C1478   1.264       .  A
O1469      V1475   1.900       .  S
O1470      V1475   1.899       .  S
O1470      C1480   1.264       .  A
O1471      C1480   1.263       .  A
O1472      V1476   1.898       .  S
O1472      C1479   1.263       .  A
O1473      C1478   1.265       .  A
O1474      V1476   1.901       .  S
O1474      C1477   1.265       .  A
C1477      C1511   1.467       .  S
C1479      C1485   1.466       .  S
C1481      N1482   1.357       .  A
C1481      N1486   1.359       .  A
C1481      C1668   1.477       .  S
N1482      C1483   1.356       .  A
C1483      N1484   1.358       .  A
N1484      C1485   1.358       .  A
C1485      N1486   1.357       .  A
C1487      N1488   1.359       .  A
C1487      N1492   1.358       .  A
C1487      C1671   1.478       .  S
N1488      C1489   1.357       .  A
C1489      N1490   1.357       .  A
N1490      C1491   1.357       .  A
C1491      N1492   1.358       .  A
C1491      C1503   1.464       .  S
O1493      V1501   1.896       .  S
O1493      C1503   1.263       .  A
O1494      V1501   1.899       .  S
O1494      C1504   1.264       .  A
O1495      V1501   1.901       .  S
O1495      C1505   1.264       .  A
O1496      V1501   1.900       .  S
O1496      C1506   1.265       .  A
O1497      V1502   1.900       .  S
O1497      C1506   1.264       .  A
O1498      V1502   1.900       .  S
O1498      C1505   1.264       .  A
O1499      V1502   1.899       .  S
O1499      C1504   1.264       .  A
O1500      V1502   1.899       .  S
O1500      C1503   1.264       .  A
V1501      V1502   2.089       .  T
C1507      N1508   1.360       .  A
C1507      N1512   1.361       .  A
C1507      C1647   1.486       .  S
N1508      C1509   1.357       .  A
C1509      N1510   1.357       .  A
C1509      C1558   1.467       .  S
N1510      C1511   1.357       .  A
C1511      N1512   1.359       .  A
C1513      N1514   1.361       .  A
C1513      N1518   1.358       .  A
C1513      C1644   1.485       .  S
N1514      C1515   1.360       .  A
C1515      N1516   1.359       .  A
N1516      C1517   1.358       .  A
C1517      N1518   1.356       .  A
O1519      V1527   1.901       .  S
O1519      C1529   1.265       .  A
O1520      V1527   1.902       .  S
O1520      C1530   1.265       .  A
O1521      V1527   1.896       .  S
O1522      V1527   1.897       .  S
O1522      C1532   1.263       .  A
O1523      V1528   1.902       .  S
O1523      C1532   1.265       .  A
O1524      C1531   1.265       .  A
O1525      V1528   1.896       .  S
O1525      C1530   1.262       .  A
O1526      V1528   1.896       .  S
O1526      C1529   1.263       .  A
V1527      V1528   2.089       .  T
C1529      C1541   1.465       .  S
C1533      N1534   1.358       .  A
C1533      N1538   1.360       .  A
C1533      C1623   1.482       .  S
N1534      C1535   1.355       .  A
C1535      N1536   1.357       .  A
N1536      C1537   1.357       .  A
C1537      N1538   1.359       .  A
C1537      C1556   1.467       .  S
C1539      N1540   1.360       .  A
C1539      N1544   1.358       .  A
C1539      C1620   1.482       .  S
N1540      C1541   1.358       .  A
C1541      N1542   1.358       .  A
N1542      C1543   1.357       .  A
C1543      N1544   1.356       .  A
O1545      V1553   1.896       .  S
O1545      C1555   1.263       .  A
O1546      V1553   1.898       .  S
O1547      C1557   1.264       .  A
O1548      V1553   1.900       .  S
O1548      C1558   1.264       .  A
O1549      V1554   1.900   1_545  S
O1550      V1554   1.901       .  S
O1550      C1557   1.264       .  A
O1551      V1554   1.900       .  S
O1551      C1556   1.265       .  A
O1552      V1554   1.902   1_545  S
C1555      C1563   1.466       .  S
C1559      N1560   1.359       .  A
C1559      N1564   1.361       .  A
C1559      C1596   1.480       .  S
N1560      C1561   1.358       .  A
C1561      N1562   1.356       .  A
N1562      C1563   1.357       .  A
C1563      N1564   1.359       .  A
C1565      N1566   1.359       .  A
C1565      N1570   1.360       .  A
C1565      C1599   1.480       .  S
N1566      C1567   1.358       .  A
C1567      N1568   1.357       .  A
N1568      C1569   1.356       .  A
C1569      N1570   1.359       .  A
C1569      C1581   1.466       .  S
O1571      V1579   1.896       .  S
O1571      C1581   1.262       .  A
O1572      V1579   1.896       .  S
O1572      C1582   1.263       .  A
O1573      V1579   1.899       .  S
O1573      C1583   1.264       .  A
O1574      V1579   1.897       .  S
O1574      C1584   1.264       .  A
O1575      V1580   1.899       .  S
O1575      C1584   1.263       .  A
O1576      V1580   1.898       .  S
O1576      C1583   1.263       .  A
O1577      V1580   1.902       .  S
O1577      C1582   1.265       .  A
O1578      V1580   1.902       .  S
O1578      C1581   1.265       .  A
V1579      V1580   2.089       .  T
C1585      C1586   1.399       .  A
C1585      H1601   1.084   1_545  S
C1586      H1602   1.083   1_545  S
C1587      C1597   1.403       .  A
C1587      C1588   1.412       .  A
C1588      C1594   1.411       .  A
C1588      C1589   1.412       .  A
C1589      C1591   1.412       .  A
C1589      C1590   1.411       .  A
C1590      C1598   1.402       .  A
C1591      C1600   1.404       .  A
C1591      C1592   1.404       .  A
C1592      C1593   1.399       .  A
C1592      H1603   1.083       .  S
C1593      C1594   1.404       .  A
C1593      H1604   1.084       .  S
C1594      C1595   1.403       .  A
C1595      C1596   1.408       .  A
C1595      H1605   1.085       .  S
C1596      C1597   1.406       .  A
C1598      C1599   1.407       .  A
C1599      C1600   1.407       .  A
C1600      H1608   1.084       .  S
C1609      C1610   1.398       .  A
C1609      C1614   1.403       .  A
C1609      H1625   1.084   1_565  S
C1610      C1611   1.404       .  A
C1610      H1626   1.083   1_565  S
C1611      C1621   1.401       .  A
C1611      C1612   1.410       .  A
C1612      C1618   1.412       .  A
C1612      C1613   1.410       .  A
C1613      C1615   1.410       .  A
C1613      C1614   1.412       .  A
C1614      C1622   1.402       .  A
C1615      C1624   1.400       .  A
C1615      C1616   1.403       .  A
C1616      C1617   1.398       .  A
C1616      H1627   1.083       .  S
C1617      C1618   1.403       .  A
C1617      H1628   1.084       .  S
C1618      C1619   1.402       .  A
C1619      C1620   1.407       .  A
C1619      H1629   1.084       .  S
C1620      C1621   1.409       .  A
C1621      H1630   1.083       .  S
C1622      C1623   1.407       .  A
C1622      H1631   1.084       .  S
C1623      C1624   1.408       .  A
C1624      H1632   1.084       .  S
C1633      C1634   1.398       .  A
C1633      C1638   1.404       .  A
C1634      C1635   1.403       .  A
C1635      C1645   1.403       .  A
C1635      C1636   1.412       .  A
C1636      C1642   1.410       .  A
C1636      C1637   1.412       .  A
C1637      C1639   1.411       .  A
C1637      C1638   1.410       .  A
C1638      C1646   1.402       .  A
C1639      C1648   1.404       .  A
C1639      C1640   1.404       .  A
C1640      C1641   1.399       .  A
C1640      H1651   1.084   1_655  S
C1641      C1642   1.404       .  A
C1641      H1652   1.083   1_655  S
C1642      C1643   1.403       .  A
C1643      C1644   1.410       .  A
C1643      H1653   1.084       .  S
C1644      C1645   1.407       .  A
C1645      H1654   1.084       .  S
C1646      C1647   1.409       .  A
C1646      H1655   1.084       .  S
C1647      C1648   1.409       .  A
C1648      H1656   1.084       .  S
C1657      C1658   1.399       .  A
C1657      C1662   1.404       .  A
C1657      H1673   1.083       .  S
C1658      C1659   1.404       .  A
C1658      H1674   1.084       .  S
C1659      C1669   1.402       .  A
C1659      C1660   1.411       .  A
C1660      C1666   1.411       .  A
C1660      C1661   1.410       .  A
C1661      C1663   1.411       .  A
C1661      C1662   1.411       .  A
C1662      C1670   1.403       .  A
C1663      C1672   1.400       .  A
C1664      C1665   1.397       .  A
C1664      H1675   1.084       .  S
C1665      H1676   1.083       .  S
C1666      C1667   1.400       .  A
C1667      C1668   1.406       .  A
C1668      C1669   1.407       .  A
C1669      H1678   1.084       .  S
C1670      C1671   1.408       .  A
C1670      H1679   1.084       .  S
C1671      C1672   1.405       .  A
C1681      C1682   1.398       .  A
C1681      C1686   1.403       .  A
C1681      H1697   1.083       .  S
C1682      C1683   1.403       .  A
C1682      H1698   1.084       .  S
C1683      C1693   1.402       .  A
C1683      C1684   1.411       .  A
C1684      C1690   1.411       .  A
C1684      C1685   1.412       .  A
C1685      C1687   1.411       .  A
C1685      C1686   1.411       .  A
C1686      C1694   1.402       .  A
C1687      C1696   1.404       .  A
C1687      C1688   1.404       .  A
C1688      C1689   1.400       .  A
C1689      C1690   1.404       .  A
C1690      C1691   1.404       .  A
C1691      C1692   1.409       .  A
C1691      H1701   1.083       .  S
C1692      C1693   1.408       .  A
C1693      H1702   1.084       .  S
C1694      C1695   1.408       .  A
C1694      H1703   1.084       .  S
C1695      C1696   1.409       .  A
C1696      H1704   1.084       .  S
C1705      C1706   1.400       .  A
C1705      C1710   1.404       .  A
C1705      H1721   1.083       .  S
C1706      C1707   1.404       .  A
C1706      H1722   1.084       .  S
C1707      C1717   1.404       .  A
C1707      C1708   1.411       .  A
C1708      C1714   1.411       .  A
C1708      C1709   1.411       .  A
C1709      C1711   1.411       .  A
C1709      C1710   1.411       .  A
C1710      C1718   1.404       .  A
C1711      C1720   1.400       .  A
C1711      C1712   1.403       .  A
C1712      C1713   1.397       .  A
C1712      H1723   1.084       .  S
C1713      C1714   1.403       .  A
C1713      H1724   1.083       .  S
C1714      C1715   1.401       .  A
C1715      C1716   1.407       .  A
C1715      H1725   1.084       .  S
C1716      C1717   1.408       .  A
C1717      H1726   1.084       .  S
C1718      C1719   1.408       .  A
C1718      H1727   1.084       .  S
C1719      C1720   1.407       .  A
C1720      H1728   1.084       .  S
C1729      C1730   1.400       .  A
C1729      C1734   1.404       .  A
C1729      H1745   1.084       .  S
C1730      C1731   1.404       .  A
C1730      H1746   1.083       .  S
C1731      C1741   1.403       .  A
C1732      C1738   1.411       .  A
C1732      C1733   1.411       .  A
C1733      C1735   1.410       .  A
C1734      C1742   1.404   1_556  A
C1735      C1744   1.400   1_556  A
C1735      C1736   1.403       .  A
C1736      C1737   1.397       .  A
C1736      H1747   1.083       .  S
C1737      C1738   1.402       .  A
C1737      H1748   1.084       .  S
C1738      C1739   1.400       .  A
C1739      C1740   1.406       .  A
C1739      H1749   1.084       .  S
C1741      H1750   1.084       .  S
C1742      H1751   1.084       .  S
C1743      C1744   1.408       .  A
C1744      H1752   1.084       .  S
C1753      C1754   1.399       .  A
C1753      C1758   1.404       .  A
C1753      H1769   1.083       .  S
C1754      C1755   1.403       .  A
C1754      H1770   1.084       .  S
C1755      C1765   1.403   1_556  A
C1755      C1756   1.412       .  A
C1756      C1757   1.412       .  A
C1757      C1758   1.410       .  A
C1758      C1766   1.402       .  A
C1759      C1768   1.404       .  A
C1759      C1760   1.403   1_565  A
C1760      C1761   1.399       .  A
C1760      H1771   1.084       .  S
C1761      C1762   1.404       .  A
C1761      H1772   1.083       .  S
C1762      C1763   1.402   1_556  A
C1763      C1764   1.409       .  A
C1763      H1773   1.084       .  S
C1765      H1774   1.084       .  S
C1766      C1767   1.409       .  A
C1766      H1775   1.084       .  S
C1768      H1776   1.084       .  S
C1777      C1778   1.398       .  A
C1777      C1782   1.403       .  A
C1777      H1793   1.084       .  S
C1778      C1779   1.403       .  A
C1778      H1794   1.083       .  S
C1779      C1789   1.402       .  A
C1779      C1780   1.411       .  A
C1780      C1786   1.411       .  A
C1780      C1781   1.412       .  A
C1781      C1783   1.411       .  A
C1781      C1782   1.411       .  A
C1782      C1790   1.402   1_556  A
C1783      C1792   1.403   1_556  A
C1783      C1784   1.404       .  A
C1784      C1785   1.399       .  A
C1784      H1795   1.083       .  S
C1785      C1786   1.404       .  A
C1785      H1796   1.084       .  S
C1786      C1787   1.404       .  A
C1787      C1788   1.410       .  A
C1787      H1797   1.084       .  S
C1788      C1789   1.408       .  A
C1789      H1798   1.084       .  S
C1790      C1791   1.408       .  A
C1790      H1799   1.084       .  S
C1791      C1792   1.409       .  A
C1792      H1800   1.084       .  S
