geometry optimzed in LAMMPS
_audit_creation_date              2020-11-30 
_audit_creation_method            'lammps2cif' 
_symmetry_space_group_name_H-M    'P1' 
_symmetry_Int_Tables_number       1 
_symmetry_cell_setting            triclinic 
loop_ 
_symmetry_equiv_pos_as_xyz 
  x,y,z 
_cell_length_a                    36.51630067 
_cell_length_b                    36.44716863605335 
_cell_length_c                    45.83177724159042 
_cell_angle_alpha                 90.00096037351742 
_cell_angle_beta                  89.99395426076451 
_cell_angle_gamma                 89.99629860947128 
loop_ 
_atom_site_label 
_atom_site_type_symbol 
_atom_site_fract_x 
_atom_site_fract_y 
_atom_site_fract_z 
_atom_site_charge 
N1          N  0.05764232  0.99999724  0.00225746    -0.36500
N2          N  0.50282669  0.05731891  0.00023684    -0.57000
N3          N  0.44581308  0.00210575  0.00211124    -0.36500
N4          N  0.50070739  0.44475319  0.00102139    -0.57000
C5          C  0.07816274  0.02936342  0.99471639     0.27100
C6          C  0.07690755  0.46969134  0.99492966     0.27100
C7          C  0.42636613  0.03219237  0.99458495     0.27100
C8          C  0.42523060  0.47254677  0.99516234     0.27100
C9          C  0.03276788  0.07788396  0.00576818     0.35700
C10         C  0.47359619  0.07907898  0.00529754     0.35700
C11         C  0.02987981  0.42357028  0.00760219     0.35700
C12         C  0.47071546  0.42470912  0.00750243     0.35700
C13         C  0.11078441  0.01765021  0.98234697    -0.21800
C14         C  0.10993359  0.47991633  0.98236926    -0.21800
C15         C  0.39299861  0.02169191  0.98281227    -0.21800
C16         C  0.39232058  0.48396286  0.98309456    -0.21800
C17         C  0.02251510  0.11284756  0.01448295    -0.22800
C18         C  0.48493099  0.11364706  0.01405014    -0.22800
C19         C  0.01839282  0.39002718  0.01854278    -0.22800
C20         C  0.48080537  0.39070768  0.01837963    -0.22800
C21         C  0.06903499  0.06630243  0.00046198    -0.18200
C22         C  0.06648229  0.43326701  0.00148248    -0.18200
C23         C  0.43454670  0.43575521  0.00131626    -0.18200
C24         C  0.43702168  0.06878718  0.99992705    -0.18200
H25         H  0.13299967  0.03453031  0.97433217     0.14700
H26         H  0.13140666  0.46206609  0.97440251     0.14700
H27         H  0.37129257  0.03939221  0.97503213     0.14700
H28         H  0.36997579  0.46691132  0.97556452     0.14700
H29         H  0.04022642  0.13559298  0.02006830     0.13000
H30         H  0.46792602  0.13708277  0.01923219     0.13000
H31         H  0.03527347  0.36727736  0.02556098     0.13000
H32         H  0.46295949  0.36860597  0.02520207     0.13000
H33         H  0.03400733  0.00059503  0.01494193     0.26300
H34         H  0.46973816  0.00184824  0.01444416     0.26300
N35         N  0.44394311  0.99834069  0.24831690    -0.36500
N36         N  0.00000038  0.44197678  0.25095329    -0.57000
N37         N  0.05570517  0.99836180  0.25071143    -0.36500
N38         N  0.99968958  0.05474800  0.25146945    -0.57000
C39         C  0.42358382  0.46851431  0.25497887     0.27100
C40         C  0.42335847  0.02820283  0.25436560     0.27100
C41         C  0.07571613  0.46840841  0.25764585     0.27100
C42         C  0.07550271  0.02809086  0.25855614     0.27100
C43         C  0.47050519  0.42108074  0.24475190     0.35700
C44         C  0.02966222  0.42120847  0.24493966     0.35700
C45         C  0.47040304  0.07557350  0.24445026     0.35700
C46         C  0.02954456  0.07563718  0.24635991     0.35700
C47         C  0.38962056  0.47951846  0.26531633    -0.21800
C48         C  0.38948738  0.01726245  0.26494734    -0.21800
C49         C  0.10854917  0.47919201  0.27021480    -0.21800
C50         C  0.10842310  0.01695911  0.27076355    -0.21800
C51         C  0.48137977  0.38686944  0.23482221    -0.22800
C52         C  0.01895552  0.38701775  0.23476730    -0.22800
C53         C  0.48167307  0.10983462  0.23487722    -0.22800
C54         C  0.01923215  0.10988514  0.23611319    -0.22800
C55         C  0.43399128  0.43177248  0.24985582    -0.18200
C56         C  0.43366665  0.06487535  0.24874429    -0.18200
C57         C  0.06577264  0.06482838  0.25264467    -0.18200
C58         C  0.06605331  0.43186666  0.25086894    -0.18200
H59         H  0.36710869  0.46216271  0.27206464     0.14700
H60         H  0.36687346  0.03463489  0.27144502     0.14700
H61         H  0.13051672  0.46169844  0.27781961     0.14700
H62         H  0.13030027  0.03425797  0.27880293     0.14700
H63         H  0.46405219  0.36415539  0.22843395     0.13000
H64         H  0.03634432  0.36437631  0.22833401     0.13000
H65         H  0.46462443  0.13250751  0.22795005     0.13000
H66         H  0.03688333  0.13258715  0.23029516     0.13000
H67         H  0.46862129  0.99829056  0.23700808     0.26300
H68         H  0.03217564  0.99857229  0.23792126     0.26300
Zn69       Zn  0.29399291  0.25207281  0.47494887     1.49700
Zn70       Zn  0.25154624  0.29454145  0.02417154     1.49400
Zn71       Zn  0.20618945  0.25099492  0.47466342     1.51300
Zn72       Zn  0.25276058  0.20704777  0.02394222     1.49500
O73         O  0.25002203  0.25126554  0.49934146    -1.84000
O74         O  0.32425418  0.29716362  0.48298819    -0.74600
O75         O  0.20646162  0.32489862  0.01730689    -0.74400
O76         O  0.21978582  0.25175100  0.43214629    -0.74000
O77         O  0.29523803  0.32646267  0.01615607    -0.74600
O78         O  0.28076794  0.25232194  0.43237273    -0.74200
O79         O  0.17409898  0.29486669  0.48277563    -0.74800
O80         O  0.20907139  0.17475431  0.01653358    -0.74200
O81         O  0.25226919  0.28113085  0.06679498    -0.75000
O82         O  0.17590897  0.20564869  0.48156723    -0.74400
O83         O  0.25253260  0.22008437  0.06653944    -0.74800
O84         O  0.29779539  0.17708332  0.01625633    -0.74700
O85         O  0.32564885  0.20756992  0.48205189    -0.74500
C86         C  0.32059568  0.32438340  0.50017932     0.77300
C87         C  0.17710904  0.32186098  0.50026079     0.77800
C88         C  0.25035938  0.25205474  0.41887892     0.76700
C89         C  0.17951163  0.17827518  0.49858992     0.77100
C90         C  0.25237026  0.25050898  0.08007003     0.78200
C91         C  0.32265718  0.18012651  0.49909283     0.77300
Zn92       Zn  0.20651950  0.24871958  0.27439956     1.49700
Zn93       Zn  0.25033330  0.29249867  0.22505583     1.49400
Zn94       Zn  0.29374550  0.24807902  0.27404495     1.49100
Zn95       Zn  0.24915775  0.20477158  0.22458324     1.49500
O96         O  0.24995522  0.24846228  0.24947726    -1.84000
O97         O  0.17542794  0.29290555  0.26642505    -0.74600
O98         O  0.29477409  0.32339040  0.23292719    -0.74400
O99         O  0.28088878  0.24841417  0.31670530    -0.74000
O100        O  0.20583338  0.32371722  0.23239257    -0.74600
O101        O  0.21999033  0.25009442  0.31689008    -0.74200
O102        O  0.32521110  0.29243664  0.26683481    -0.74800
O103        O  0.29374886  0.17335788  0.23155372    -0.74200
O104        O  0.25112003  0.27959441  0.18244763    -0.75000
O105        O  0.32420812  0.20339028  0.26602270    -0.74400
O106        O  0.24917623  0.21855401  0.18198461    -0.74800
O107        O  0.20445268  0.17380798  0.23263864    -0.74700
O108        O  0.17549807  0.20390948  0.26786548    -0.74500
C109        C  0.17850547  0.32035895  0.24944196     0.77300
C110        C  0.32209338  0.31998502  0.24995306     0.77800
C111        C  0.25051006  0.24967251  0.33018977     0.76700
C112        C  0.32108440  0.17630156  0.24865755     0.77100
C113        C  0.25042606  0.24924178  0.16882021     0.78200
C114        C  0.17791032  0.17671103  0.25054452     0.77300
C115        C  0.25056025  0.25167893  0.38765494    -0.13100
C116        C  0.25064339  0.25079857  0.36140475    -0.14700
C117        C  0.25197874  0.25020734  0.11131617    -0.13100
C118        C  0.25124993  0.24969372  0.13757935    -0.14700
C119        C  0.15221684  0.37961900  0.23119694    -0.13200
C120        C  0.14979896  0.34895761  0.24972728     0.08900
C121        C  0.11977160  0.34598326  0.26879906    -0.13200
C122        C  0.09280810  0.37308170  0.26936626    -0.13200
C123        C  0.09514798  0.40346226  0.25069251     0.08900
C124        C  0.12506670  0.40660655  0.23165626    -0.13200
H125        H  0.17502486  0.38274500  0.21630144     0.12900
H126        H  0.11711756  0.32276064  0.28338258     0.12900
H127        H  0.06998478  0.37033877  0.28430809     0.12900
H128        H  0.12725059  0.42989685  0.21707625     0.12900
C129        C  0.37859485  0.40255421  0.22806765    -0.13200
C130        C  0.40527038  0.40313723  0.25001852     0.08900
C131        C  0.40465584  0.37642874  0.27202139    -0.13200
C132        C  0.37762274  0.34931759  0.27203554    -0.13200
C133        C  0.35075682  0.34860711  0.25005009     0.08900
C134        C  0.35151650  0.37553898  0.22808339    -0.13200
H135        H  0.37888676  0.42296801  0.21089146     0.12900
H136        H  0.42507824  0.37668263  0.28916204     0.12900
H137        H  0.37764621  0.32905965  0.28932036     0.12900
H138        H  0.33132285  0.37561182  0.21078340     0.12900
C139        C  0.40573863  0.12209694  0.26892944    -0.13200
C140        C  0.40483449  0.09352885  0.24847263     0.08900
C141        C  0.37635285  0.09215794  0.22796606    -0.13200
C142        C  0.34904436  0.11902579  0.22796585    -0.13200
C143        C  0.34988380  0.14775958  0.24845181     0.08900
C144        C  0.37860304  0.14903298  0.26887157    -0.13200
H145        H  0.42745562  0.12342747  0.28499431     0.12900
H146        H  0.37533528  0.07027299  0.21199421     0.12900
H147        H  0.32736187  0.11733292  0.21190581     0.12900
H148        H  0.38003716  0.17074375  0.28495838     0.12900
C149        C  0.09433471  0.12180154  0.27303332    -0.13200
C150        C  0.09493379  0.09311434  0.25265999     0.08900
C151        C  0.12292226  0.09175887  0.23176087    -0.13200
C152        C  0.14989912  0.11889836  0.23107185    -0.13200
C153        C  0.14935306  0.14788516  0.25132326     0.08900
C154        C  0.12129506  0.14899388  0.27236937    -0.13200
H155        H  0.07289338  0.12315460  0.28933440     0.12900
H156        H  0.12362037  0.06983362  0.21581293     0.12900
H157        H  0.17106129  0.11726250  0.21457307     0.12900
H158        H  0.12014582  0.17086373  0.28833592     0.12900
C159        C  0.09023842  0.37482073  0.48383579    -0.13200
C160        C  0.09338601  0.40453724  0.50314570     0.08900
C161        C  0.12622253  0.40785250  0.01912778    -0.13200
C162        C  0.15335065  0.38087952  0.01894815    -0.13200
C163        C  0.14817045  0.35020576  0.50119956     0.08900
C164        C  0.11733140  0.34778957  0.48293634    -0.13200
H165        H  0.06687194  0.37270833  0.46937493     0.12900
H166        H  0.12958253  0.43170987  0.03296724     0.12900
H167        H  0.17726110  0.38465017  0.03259486     0.12900
H168        H  0.11420125  0.32513358  0.46785750     0.12900
C169        C  0.37348143  0.41014703  0.52059348    -0.13200
C170        C  0.40393104  0.40758040  0.50205076     0.08900
C171        C  0.40764154  0.37839186  0.98033243    -0.13200
C172        C  0.37927809  0.35127879  0.48172235    -0.13200
C173        C  0.34891813  0.35341984  0.50051926     0.08900
C174        C  0.34616841  0.38331292  0.51983464    -0.13200
H175        H  0.37106197  0.43279294  0.53578203     0.12900
H176        H  0.43051559  0.37660082  0.96534786     0.12900
H177        H  0.38214314  0.32873811  0.46650348     0.12900
H178        H  0.32307876  0.38584201  0.53452652     0.12900
C179        C  0.40763077  0.12563932  0.47934350    -0.13200
C180        C  0.40642100  0.09729834  0.50002016     0.08900
C181        C  0.38205998  0.09870158  0.02167334    -0.13200
C182        C  0.35016050  0.12273145  0.51961343    -0.13200
C183        C  0.35139054  0.15146928  0.49914848     0.08900
C184        C  0.38036288  0.15255613  0.47892205    -0.13200
H185        H  0.42969328  0.12685545  0.46357249     0.12900
H186        H  0.38270146  0.07884518  0.03925410     0.12900
H187        H  0.33485180  0.12585701  0.03881892     0.12900
H188        H  0.38197416  0.17417931  0.46277174     0.12900
C189        C  0.12570283  0.09372741  0.52014602    -0.13200
C190        C  0.09642100  0.09494276  0.50040542     0.08900
C191        C  0.09726478  0.12290962  0.97940164    -0.13200
C192        C  0.12440014  0.14983754  0.97924342    -0.13200
C193        C  0.15131644  0.14915155  0.49872596     0.08900
C194        C  0.15295974  0.12054900  0.51929607    -0.13200
H195        H  0.12721716  0.07216972  0.53637257     0.12900
H196        H  0.07503318  0.12455981  0.96381042     0.12900
H197        H  0.12247682  0.17185544  0.96345656     0.12900
H198        H  0.17507256  0.11910771  0.53499444     0.12900
N199        N  0.05610956  0.00044308  0.50438698    -0.36500
N200        N  0.50105313  0.05749060  0.50148856    -0.57000
N201        N  0.44429499  0.00212894  0.50353839    -0.36500
N202        N  0.49925293  0.44507420  0.50352478    -0.57000
C203        C  0.07659101  0.02977643  0.49664833     0.27100
C204        C  0.07558193  0.47011146  0.49749653     0.27100
C205        C  0.42513906  0.03202484  0.49509280     0.27100
C206        C  0.42413326  0.47243132  0.49620734     0.27100
C207        C  0.03088092  0.07817325  0.50711858     0.35700
C208        C  0.47171173  0.07907341  0.50660059     0.35700
C209        C  0.02845146  0.42381284  0.50982072     0.35700
C210        C  0.46928075  0.42479764  0.50957620     0.35700
C211        C  0.10945001  0.01799602  0.48473398    -0.21800
C212        C  0.10878835  0.48028506  0.48521778    -0.21800
C213        C  0.39253091  0.02123240  0.48220153    -0.21800
C214        C  0.39191342  0.48354087  0.48286377    -0.21800
C215        C  0.02048300  0.11300806  0.51601163    -0.22800
C216        C  0.48287529  0.11357840  0.51567089    -0.22800
C217        C  0.01702703  0.38994207  0.52014315    -0.22800
C218        C  0.47942155  0.39056964  0.51999127    -0.22800
C219        C  0.06715975  0.06679947  0.50172994    -0.18200
C220        C  0.06501314  0.43366047  0.50379220    -0.18200
C221        C  0.43318175  0.43578871  0.50306016    -0.18200
C222        C  0.43527526  0.06870207  0.50071424    -0.18200
H223        H  0.13168512  0.03481856  0.47668050     0.14700
H224        H  0.13043042  0.46241589  0.47757506     0.14700
H225        H  0.37126455  0.03874394  0.47344572     0.14700
H226        H  0.37007836  0.46627997  0.47470967     0.14700
H227        H  0.03812189  0.13578329  0.52167298     0.13000
H228        H  0.46577055  0.13687596  0.52102292     0.13000
H229        H  0.03397169  0.36699110  0.52664065     0.13000
H230        H  0.46162747  0.36819194  0.52630978     0.13000
H231        H  0.03223045  0.00113771  0.51674595     0.26300
H232        H  0.46752283  0.00215138  0.51668897     0.26300
N233        N  0.44215492  0.99914417  0.74769025    -0.36500
N234        N  0.99829615  0.44302752  0.74964262    -0.57000
N235        N  0.05381037  0.99947707  0.75081516    -0.36500
N236        N  0.99779737  0.05569288  0.75196816    -0.57000
C237        C  0.42195785  0.46907081  0.75398106     0.27100
C238        C  0.42161080  0.02876400  0.75449269     0.27100
C239        C  0.07373562  0.46947943  0.75772445     0.27100
C240        C  0.07350998  0.02912793  0.75894061     0.27100
C241        C  0.46900259  0.42221315  0.74275708     0.35700
C242        C  0.02812284  0.42244852  0.74381107     0.35700
C243        C  0.46843983  0.07654500  0.74522530     0.35700
C244        C  0.02758984  0.07677002  0.74706655     0.35700
C245        C  0.38815043  0.47967621  0.76490222    -0.21800
C246        C  0.38793776  0.01743828  0.76521847    -0.21800
C247        C  0.10640114  0.48015827  0.77061468    -0.21800
C248        C  0.10627759  0.01791889  0.77135575    -0.21800
C249        C  0.48018453  0.38827510  0.73243437    -0.22800
C250        C  0.01777503  0.38845808  0.73302824    -0.22800
C251        C  0.47960208  0.11103658  0.73608278    -0.22800
C252        C  0.01715820  0.11118897  0.73728095    -0.22800
C253        C  0.43244457  0.43252229  0.74808958    -0.18200
C254        C  0.43173482  0.06558977  0.74933092    -0.18200
C255        C  0.06387879  0.06586983  0.75305077    -0.18200
C256        C  0.06426678  0.43302947  0.75054956    -0.18200
H257        H  0.36581435  0.46205884  0.77159260     0.14700
H258        H  0.36541102  0.03458548  0.77226662     0.14700
H259        H  0.12829536  0.46259526  0.77825116     0.14700
H260        H  0.12805675  0.03517507  0.77961831     0.14700
H261        H  0.46304734  0.36563333  0.72557537     0.13000
H262        H  0.03541789  0.36595906  0.72670933     0.13000
H263        H  0.46248996  0.13378976  0.72942723     0.13000
H264        H  0.03472821  0.13406017  0.73173524     0.13000
H265        H  0.46668202  0.99951660  0.73612897     0.26300
H266        H  0.03046982  0.99983149  0.73777314     0.26300
Zn267      Zn  0.29519264  0.25155542  0.97412457     1.49700
Zn268      Zn  0.24941055  0.29477585  0.52428107     1.49400
Zn269      Zn  0.20767979  0.25035281  0.97520584     1.51300
Zn270      Zn  0.25053008  0.20731106  0.52374184     1.49500
O271        O  0.25184974  0.25089065  0.99932751    -1.84000
O272        O  0.32571551  0.29674105  0.98153144    -0.74600
O273        O  0.20461295  0.32500606  0.51710205    -0.74400
O274        O  0.22004947  0.25118533  0.93242216    -0.74000
O275        O  0.29316437  0.32697128  0.51718841    -0.74600
O276        O  0.28099413  0.25160310  0.93168679    -0.74200
O277        O  0.17556983  0.29390823  0.98367666    -0.74800
O278        O  0.20676664  0.17561039  0.51576041    -0.74200
O279        O  0.24901186  0.28119752  0.56670039    -0.75000
O280        O  0.17800644  0.20496501  0.98256514    -0.74400
O281        O  0.24954601  0.22015050  0.56642708    -0.74800
O282        O  0.29539564  0.17685164  0.51621271    -0.74700
O283        O  0.32696509  0.20707846  0.98107016    -0.74500
C284        C  0.32232976  0.32394567  0.99878490     0.77300
C285        C  0.17869705  0.32126751  0.00076689     0.77800
C286        C  0.25026731  0.25143974  0.91865479     0.76700
C287        C  0.18171743  0.17750149  0.99946045     0.77100
C288        C  0.24893251  0.25058920  0.57994926     0.78200
C289        C  0.32457489  0.18009914  0.99863984     0.77300
Zn290      Zn  0.20481377  0.24945975  0.77418009     1.49700
Zn291      Zn  0.24825597  0.29348326  0.72484695     1.49400
Zn292      Zn  0.29211853  0.24906489  0.77359482     1.49100
Zn293      Zn  0.24754876  0.20563537  0.72427187     1.49500
O294        O  0.24818489  0.24937747  0.74917927    -1.84000
O295        O  0.17343490  0.29378015  0.76658056    -0.74600
O296        O  0.29316925  0.32399629  0.73212485    -0.74400
O297        O  0.27944258  0.24930095  0.81630744    -0.74000
O298        O  0.20403964  0.32491065  0.73284430    -0.74600
O299        O  0.21852514  0.25033203  0.81667107    -0.74200
O300        O  0.32375533  0.29320930  0.76604672    -0.74800
O301        O  0.29248970  0.17458513  0.73077687    -0.74200
O302        O  0.24787738  0.28060575  0.68219302    -0.75000
O303        O  0.32250847  0.20438009  0.76560110    -0.74400
O304        O  0.24665857  0.21953379  0.68182743    -0.74800
O305        O  0.20329171  0.17406659  0.73250144    -0.74700
O306        O  0.17413972  0.20444615  0.76747292    -0.74500
C307        C  0.17665192  0.32146210  0.74982868     0.77300
C308        C  0.32067358  0.32057111  0.74896822     0.77800
C309        C  0.24911044  0.25007136  0.82989141     0.76700
C310        C  0.31962893  0.17743593  0.74807964     0.77100
C311        C  0.24719362  0.25019711  0.66862835     0.78200
C312        C  0.17671288  0.17704791  0.75036015     0.77300
C313        C  0.24970267  0.25127035  0.88740567    -0.13100
C314        C  0.24939699  0.25075501  0.86113600    -0.14700
C315        C  0.24802855  0.25044756  0.61115908    -0.13100
C316        C  0.24737389  0.25044163  0.63740902    -0.14700
C317        C  0.14959269  0.37984446  0.73054828    -0.13200
C318        C  0.14800954  0.35018242  0.75014891     0.08900
C319        C  0.11878080  0.34823974  0.77009175    -0.13200
C320        C  0.09171072  0.37529327  0.77035477    -0.13200
C321        C  0.09332608  0.40466484  0.75065006     0.08900
C322        C  0.12245816  0.40684663  0.73081252    -0.13200
H323        H  0.17170050  0.38212982  0.71490667     0.12900
H324        H  0.11681452  0.32583809  0.78553087     0.12900
H325        H  0.06942000  0.37334250  0.78587563     0.12900
H326        H  0.12399278  0.42935464  0.71542475     0.12900
C327        C  0.37657559  0.40349030  0.72685817    -0.13200
C328        C  0.40397447  0.40363443  0.74823761     0.08900
C329        C  0.40423773  0.37631609  0.76977223    -0.13200
C330        C  0.37725906  0.34915654  0.76998021    -0.13200
C331        C  0.34954948  0.34899619  0.74866107     0.08900
C332        C  0.34956125  0.37640603  0.72705671    -0.13200
H333        H  0.37619223  0.42435487  0.71002985     0.12900
H334        H  0.42524838  0.37619533  0.78645777     0.12900
H335        H  0.37794270  0.32848587  0.78694420     0.12900
H336        H  0.32873460  0.37689886  0.71024558     0.12900
C337        C  0.40355064  0.12277337  0.76936108    -0.13200
C338        C  0.40274878  0.09407381  0.74902127     0.08900
C339        C  0.37457123  0.09276267  0.72824517    -0.13200
C340        C  0.34753713  0.11990221  0.72779344    -0.13200
C341        C  0.34833484  0.14881406  0.74811804     0.08900
C342        C  0.37670733  0.14997950  0.76884600    -0.13200
H343        H  0.42505275  0.12408332  0.78560936     0.12900
H344        H  0.37366141  0.07080003  0.71233653     0.12900
H345        H  0.32609242  0.11826892  0.71152776     0.12900
H346        H  0.37808526  0.17180830  0.78483460     0.12900
C347        C  0.09333738  0.12231906  0.77348058    -0.13200
C348        C  0.09321476  0.09396994  0.75282879     0.08900
C349        C  0.12083454  0.09259143  0.73160075    -0.13200
C350        C  0.14810174  0.11946800  0.73082823    -0.13200
C351        C  0.14818041  0.14819642  0.75132084     0.08900
C352        C  0.12056876  0.14921912  0.77273898    -0.13200
H353        H  0.07225668  0.12363026  0.79007761     0.12900
H354        H  0.12101426  0.07086249  0.71547339     0.12900
H355        H  0.16892668  0.11789459  0.71405332     0.12900
H356        H  0.11994705  0.17084446  0.78893112     0.12900
C357        C  0.09123596  0.37296123  0.98384481    -0.13200
C358        C  0.09502119  0.40419390  0.00150828     0.08900
C359        C  0.12398116  0.40690032  0.52151264    -0.13200
C360        C  0.15117803  0.38006385  0.52050364    -0.13200
C361        C  0.14965710  0.34955174  0.00128360     0.08900
C362        C  0.11818587  0.34577594  0.98385925    -0.13200
H363        H  0.06743515  0.36972250  0.96997778     0.12900
H364        H  0.12682008  0.42965631  0.53654959     0.12900
H365        H  0.17456733  0.38274880  0.53486773     0.12900
H366        H  0.11447652  0.32194778  0.97005985     0.12900
C367        C  0.37540298  0.40947079  0.01934981    -0.13200
C368        C  0.40539317  0.40744508  0.00032095     0.08900
C369        C  0.40647602  0.37815585  0.48245280    -0.13200
C370        C  0.38050982  0.35140777  0.97963530    -0.13200
C371        C  0.35057635  0.35307125  0.99889888     0.08900
C372        C  0.34819088  0.38256346  0.01862812    -0.13200
H373        H  0.37325903  0.43176495  0.03488820     0.12900
H374        H  0.42964855  0.37597982  0.46779694     0.12900
H375        H  0.38309474  0.32916498  0.96410885     0.12900
H376        H  0.32546918  0.38470543  0.03371528     0.12900
C377        C  0.40725912  0.12343140  0.97690216    -0.13200
C378        C  0.40844341  0.09756391  0.99951672     0.08900
C379        C  0.37744698  0.09592951  0.52004116    -0.13200
C380        C  0.35478189  0.12550466  0.02132355    -0.13200
C381        C  0.35346222  0.15166034  0.99877716     0.08900
C382        C  0.37997135  0.15032698  0.97652757    -0.13200
H383        H  0.42737225  0.12263803  0.95954076     0.12900
H384        H  0.37611649  0.07415536  0.53609641     0.12900
H385        H  0.32823071  0.12104860  0.53546150     0.12900
H386        H  0.37952142  0.16992933  0.95877685     0.12900
C387        C  0.12778786  0.09231750  0.01952667    -0.13200
C388        C  0.09855292  0.09421640  0.99973501     0.08900
C389        C  0.09498507  0.12301410  0.47950221    -0.13200
C390        C  0.12214732  0.14996577  0.47870308    -0.13200
C391        C  0.15351510  0.14839306  0.99929122     0.08900
C392        C  0.15510152  0.11916250  0.01929695    -0.13200
H393        H  0.12919428  0.07024861  0.03531943     0.12900
H394        H  0.07268428  0.12411581  0.46394256     0.12900
H395        H  0.12020140  0.17150161  0.46250120     0.12900
H396        H  0.17720281  0.11723413  0.03497454     0.12900
N397        N  0.05764298  0.50000071  0.00225017    -0.36500
N398        N  0.50282732  0.55732311  0.00021512    -0.57000
N399        N  0.44581858  0.50210836  0.00209567    -0.36500
N400        N  0.50069725  0.94474897  0.00102907    -0.57000
C401        C  0.07815967  0.52936497  0.99469880     0.27100
C402        C  0.07690649  0.96968918  0.99493295     0.27100
C403        C  0.42636811  0.53219390  0.99457198     0.27100
C404        C  0.42522397  0.97254568  0.99517493     0.27100
C405        C  0.03276772  0.57788678  0.00575193     0.35700
C406        C  0.47359658  0.57907958  0.00528490     0.35700
C407        C  0.02987691  0.92356533  0.00759966     0.35700
C408        C  0.47070507  0.92470736  0.00751468     0.35700
C409        C  0.11077798  0.51764907  0.98232505    -0.21800
C410        C  0.10993678  0.97991727  0.98238083    -0.21800
C411        C  0.39299869  0.52169169  0.98280428    -0.21800
C412        C  0.39231737  0.98396341  0.98310296    -0.21800
C413        C  0.02251524  0.61284782  0.01447417    -0.22800
C414        C  0.48493006  0.61364246  0.01405053    -0.22800
C415        C  0.01839199  0.89002288  0.01854339    -0.22800
C416        C  0.48079376  0.89070824  0.01839654    -0.22800
C417        C  0.06903444  0.56630465  0.00044375    -0.18200
C418        C  0.06647873  0.93326287  0.00147828    -0.18200
C419        C  0.43453688  0.93575393  0.00132900    -0.18200
C420        C  0.43702248  0.56878869  0.99991434    -0.18200
H421        H  0.13298971  0.53452731  0.97430162     0.14700
H422        H  0.13141116  0.96206881  0.97441381     0.14700
H423        H  0.37128940  0.53939101  0.97502846     0.14700
H424        H  0.36997337  0.96691317  0.97556954     0.14700
H425        H  0.04022643  0.63559032  0.02006709     0.13000
H426        H  0.46792397  0.63707392  0.01924255     0.13000
H427        H  0.03527393  0.86727445  0.02556246     0.13000
H428        H  0.46294711  0.86860946  0.02522375     0.13000
H429        H  0.03401150  0.50060235  0.01493883     0.26300
H430        H  0.46974608  0.50185249  0.01442609     0.26300
N431        N  0.44394297  0.49833402  0.24833618    -0.36500
N432        N  0.99999747  0.94198543  0.25095310    -0.57000
N433        N  0.05570805  0.49835418  0.25071437    -0.36500
N434        N  0.99969095  0.55474198  0.25148956    -0.57000
C435        C  0.42359008  0.96852049  0.25497017     0.27100
C436        C  0.42335592  0.52819681  0.25437881     0.27100
C437        C  0.07571373  0.96841655  0.25764333     0.27100
C438        C  0.07550607  0.52808234  0.25856030     0.27100
C439        C  0.47051052  0.92109120  0.24473775     0.35700
C440        C  0.02965900  0.92121908  0.24493460     0.35700
C441        C  0.47040534  0.57556857  0.24447381     0.35700
C442        C  0.02954521  0.57563210  0.24637768     0.35700
C443        C  0.38963380  0.97952346  0.26532262    -0.21800
C444        C  0.38947605  0.51725750  0.26494268    -0.21800
C445        C  0.10854713  0.97920120  0.27021105    -0.21800
C446        C  0.10842576  0.51694921  0.27076833    -0.21800
C447        C  0.48138886  0.88688102  0.23480852    -0.22800
C448        C  0.01895200  0.88703146  0.23475622    -0.22800
C449        C  0.48167235  0.60983390  0.23490953    -0.22800
C450        C  0.01922947  0.60988344  0.23613994    -0.22800
C451        C  0.43399613  0.93177901  0.24984450    -0.18200
C452        C  0.43367008  0.56486987  0.24876853    -0.18200
C453        C  0.06577649  0.56482120  0.25265239    -0.18200
C454        C  0.06604991  0.93187504  0.25086631    -0.18200
H455        H  0.36712830  0.96216688  0.27208304     0.14700
H456        H  0.36685763  0.53463103  0.27142879     0.14700
H457        H  0.13051556  0.96170791  0.27781465     0.14700
H458        H  0.13030250  0.53424665  0.27881031     0.14700
H459        H  0.46406372  0.86416521  0.22842014     0.13000
H460        H  0.03634138  0.86439200  0.22831940     0.13000
H461        H  0.46462079  0.63251255  0.22799861     0.13000
H462        H  0.03687831  0.63258633  0.23031984     0.13000
H463        H  0.46862779  0.49828286  0.23703844     0.26300
H464        H  0.03217806  0.49856628  0.23792411     0.26300
Zn465      Zn  0.29399311  0.75208283  0.47495495     1.49700
Zn466      Zn  0.25153509  0.79453685  0.02418285     1.49400
Zn467      Zn  0.20619473  0.75099246  0.47467417     1.51300
Zn468      Zn  0.25276043  0.70704403  0.02395132     1.49500
O469        O  0.25002644  0.75126699  0.49935079    -1.84000
O470        O  0.32425180  0.79716820  0.48300878    -0.74600
O471        O  0.20644818  0.82488936  0.01731506    -0.74400
O472        O  0.21978510  0.75175059  0.43215769    -0.74000
O473        O  0.29522555  0.82646187  0.01616854    -0.74600
O474        O  0.28076661  0.75234823  0.43237948    -0.74200
O475        O  0.17409899  0.79485827  0.48278319    -0.74800
O476        O  0.20907907  0.67474235  0.01653243    -0.74200
O477        O  0.25225501  0.78112483  0.06680733    -0.75000
O478        O  0.17592266  0.70564658  0.48158022    -0.74400
O479        O  0.25252065  0.72007841  0.06655019    -0.74800
O480        O  0.29780423  0.67708911  0.01627009    -0.74700
O481        O  0.32565256  0.70757906  0.48204419    -0.74500
C482        C  0.32059434  0.82438047  0.50020742     0.77300
C483        C  0.17710632  0.82185483  0.50026594     0.77800
C484        C  0.25035655  0.75207019  0.41888813     0.76700
C485        C  0.17952942  0.67827231  0.49860110     0.77100
C486        C  0.25235583  0.75050241  0.08008189     0.78200
C487        C  0.32266915  0.68013766  0.49908791     0.77300
Zn488      Zn  0.20651431  0.74871955  0.27440738     1.49700
Zn489      Zn  0.25032936  0.79249863  0.22506784     1.49400
Zn490      Zn  0.29374695  0.74808531  0.27406101     1.49100
Zn491      Zn  0.24917090  0.70476834  0.22459987     1.49500
O492        O  0.24995671  0.74846297  0.24949060    -1.84000
O493        O  0.17541444  0.79290250  0.26643068    -0.74600
O494        O  0.29476867  0.82339650  0.23294004    -0.74400
O495        O  0.28088040  0.74843397  0.31671808    -0.74000
O496        O  0.20582291  0.82371283  0.23239967    -0.74600
O497        O  0.21998091  0.75009693  0.31689902    -0.74200
O498        O  0.32521238  0.79244443  0.26684517    -0.74800
O499        O  0.29376937  0.67336482  0.23157426    -0.74200
O500        O  0.25111584  0.77958864  0.18245994    -0.75000
O501        O  0.32421401  0.70338975  0.26605557    -0.74400
O502        O  0.24918361  0.71854759  0.18199972    -0.74800
O503        O  0.20447193  0.67379417  0.23265719    -0.74700
O504        O  0.17550039  0.70390566  0.26786981    -0.74500
C505        C  0.17849214  0.82035476  0.24944630     0.77300
C506        C  0.32209089  0.81999304  0.24996366     0.77800
C507        C  0.25049992  0.74968599  0.33020025     0.76700
C508        C  0.32109723  0.67630383  0.24868655     0.77100
C509        C  0.25042532  0.74923485  0.16883371     0.78200
C510        C  0.17792233  0.67670080  0.25055604     0.77300
C511        C  0.25055268  0.75169798  0.38766458    -0.13100
C512        C  0.25063164  0.75081665  0.36141468    -0.14700
C513        C  0.25196511  0.75019940  0.11132862    -0.13100
C514        C  0.25124208  0.74968527  0.13759222    -0.14700
C515        C  0.15219376  0.87960224  0.23118246    -0.13200
C516        C  0.14978478  0.84895411  0.24972776     0.08900
C517        C  0.11976806  0.84599649  0.26881212    -0.13200
C518        C  0.09280768  0.87309892  0.26937766    -0.13200
C519        C  0.09514168  0.90346797  0.25069159     0.08900
C520        C  0.12504834  0.90659500  0.23164192    -0.13200
H521        H  0.17499208  0.88271447  0.21627575     0.12900
H522        H  0.11712075  0.82278464  0.28340723     0.12900
H523        H  0.06999198  0.87036882  0.28432838     0.12900
H524        H  0.12722598  0.92987523  0.21705117     0.12900
C525        C  0.37858583  0.90256637  0.22807145    -0.13200
C526        C  0.40527529  0.90314229  0.25001191     0.08900
C527        C  0.40467010  0.87642920  0.27201164    -0.13200
C528        C  0.37763355  0.84932074  0.27203255    -0.13200
C529        C  0.35075479  0.84861641  0.25005669     0.08900
C530        C  0.35150454  0.87555351  0.22809366    -0.13200
H531        H  0.37886892  0.92298419  0.21089819     0.12900
H532        H  0.42510200  0.87667784  0.28914514     0.12900
H533        H  0.37766527  0.82905922  0.28931470     0.12900
H534        H  0.33130094  0.87563217  0.21080108     0.12900
C535        C  0.40569045  0.62203060  0.26901439    -0.13200
C536        C  0.40484119  0.59352449  0.24850190     0.08900
C537        C  0.37641872  0.59221582  0.22794191    -0.13200
C538        C  0.34911308  0.61908655  0.22794218    -0.13200
C539        C  0.34989464  0.64775877  0.24848430     0.08900
C540        C  0.37855415  0.64896767  0.26896020    -0.13200
H541        H  0.42736360  0.62331058  0.28511941     0.12900
H542        H  0.37544664  0.57037868  0.21192694     0.12900
H543        H  0.32747932  0.61744593  0.21183707     0.12900
H544        H  0.37994011  0.67062824  0.28509244     0.12900
C545        C  0.09430698  0.62183016  0.27300948    -0.13200
C546        C  0.09494036  0.59310698  0.25266852     0.08900
C547        C  0.12297008  0.59171238  0.23180519    -0.13200
C548        C  0.14995052  0.61884881  0.23111827    -0.13200
C549        C  0.14936620  0.64787335  0.25133480     0.08900
C550        C  0.12126867  0.64902059  0.27234592    -0.13200
H551        H  0.07283622  0.62321396  0.28928433     0.12900
H552        H  0.12369840  0.56975830  0.21588317     0.12900
H553        H  0.17114533  0.61718091  0.21464814     0.12900
H554        H  0.12008824  0.67092032  0.28828508     0.12900
C555        C  0.09023242  0.87480450  0.48383345    -0.13200
C556        C  0.09338605  0.90453327  0.50313095     0.08900
C557        C  0.12621614  0.90784645  0.01912471    -0.13200
C558        C  0.15334051  0.88087045  0.01894962    -0.13200
C559        C  0.14816790  0.85019934  0.50119834     0.08900
C560        C  0.11732429  0.84777191  0.48294085    -0.13200
H561        H  0.06686150  0.87268278  0.46937797     0.12900
H562        H  0.12957767  0.93170522  0.03296237     0.12900
H563        H  0.17725052  0.88464125  0.03259675     0.12900
H564        H  0.11418945  0.82510577  0.46787223     0.12900
C565        C  0.37351839  0.91009879  0.52067461    -0.13200
C566        C  0.40393791  0.90756263  0.50209872     0.08900
C567        C  0.40763000  0.87839131  0.98034525    -0.13200
C568        C  0.37925373  0.85129955  0.48173139    -0.13200
C569        C  0.34892124  0.85341060  0.50055839     0.08900
C570        C  0.34620340  0.88326710  0.51991249    -0.13200
H571        H  0.37112338  0.93271949  0.53588937     0.12900
H572        H  0.43050427  0.87659942  0.96536097     0.12900
H573        H  0.38209310  0.82878752  0.46648268     0.12900
H574        H  0.32313684  0.88577001  0.53463023     0.12900
C575        C  0.40760409  0.62561520  0.47929465    -0.13200
C576        C  0.40643712  0.59731751  0.50000986     0.08900
C577        C  0.38209382  0.59873066  0.02168927    -0.13200
C578        C  0.35022157  0.62279096  0.51964801    -0.13200
C579        C  0.35140515  0.65148404  0.49914173     0.08900
C580        C  0.38033357  0.65252983  0.47887393    -0.13200
H581        H  0.42963330  0.62679757  0.46349250     0.12900
H582        H  0.38275927  0.57889365  0.03928328     0.12900
H583        H  0.33491295  0.62591071  0.03885924     0.12900
H584        H  0.38190703  0.67411783  0.46269148     0.12900
C585        C  0.12573900  0.59370867  0.52014152    -0.13200
C586        C  0.09643348  0.59494853  0.50042374     0.08900
C587        C  0.09724621  0.62293892  0.97941313    -0.13200
C588        C  0.12438414  0.64986328  0.97925920    -0.13200
C589        C  0.15133476  0.64914977  0.49873770     0.08900
C590        C  0.15299962  0.62052576  0.51928744    -0.13200
H591        H  0.12726998  0.57213430  0.53635304     0.12900
H592        H  0.07499544  0.62461623  0.96384108     0.12900
H593        H  0.12244141  0.67190660  0.96349629     0.12900
H594        H  0.17513196  0.61906428  0.53496717     0.12900
N595        N  0.05611696  0.50045024  0.50440723    -0.36500
N596        N  0.50106429  0.55750442  0.50149438    -0.57000
N597        N  0.44430053  0.50214528  0.50351130    -0.36500
N598        N  0.49925128  0.94506205  0.50354410    -0.57000
C599        C  0.07660100  0.52978233  0.49667068     0.27100
C600        C  0.07557509  0.97010512  0.49747416     0.27100
C601        C  0.42514806  0.53204653  0.49507320     0.27100
C602        C  0.42412998  0.97241051  0.49624214     0.27100
C603        C  0.03089073  0.57818223  0.50713152     0.35700
C604        C  0.47172217  0.57909045  0.50659434     0.35700
C605        C  0.02845290  0.92380532  0.50981654     0.35700
C606        C  0.46928448  0.92478506  0.50960930     0.35700
C607        C  0.10946129  0.51799975  0.48475923    -0.21800
C608        C  0.10877852  0.98028085  0.48519133    -0.21800
C609        C  0.39253806  0.52126308  0.48218053    -0.21800
C610        C  0.39190879  0.98351048  0.48289640    -0.21800
C611        C  0.02049078  0.61301849  0.51602038    -0.22800
C612        C  0.48288264  0.61359684  0.51566301    -0.22800
C613        C  0.01703495  0.88993714  0.52014942    -0.22800
C614        C  0.47943205  0.89055819  0.52002190    -0.22800
C615        C  0.06717079  0.56680645  0.50174961    -0.18200
C616        C  0.06501098  0.93365405  0.50377574    -0.18200
C617        C  0.43318350  0.93577263  0.50310250    -0.18200
C618        C  0.43528806  0.56872076  0.50070080    -0.18200
H619        H  0.13169790  0.53482034  0.47670586     0.14700
H620        H  0.13042076  0.96241287  0.47754718     0.14700
H621        H  0.37127276  0.53878083  0.47343083     0.14700
H622        H  0.37007547  0.96624325  0.47474762     0.14700
H623        H  0.03812814  0.63579316  0.52168614     0.13000
H624        H  0.46577607  0.63689717  0.52100405     0.13000
H625        H  0.03398364  0.86698897  0.52664651     0.13000
H626        H  0.46164173  0.86817968  0.52634564     0.13000
H627        H  0.03223290  0.50114587  0.51676190     0.26300
H628        H  0.46752882  0.50216076  0.51666237     0.26300
N629        N  0.44214142  0.49914002  0.74772198    -0.36500
N630        N  0.99830209  0.94303272  0.74964009    -0.57000
N631        N  0.05381088  0.49946969  0.75078393    -0.36500
N632        N  0.99780094  0.55568874  0.75195832    -0.57000
C633        C  0.42197722  0.96907458  0.75396069     0.27100
C634        C  0.42159354  0.52876045  0.75451503     0.27100
C635        C  0.07373891  0.96948627  0.75774618     0.27100
C636        C  0.07351494  0.52912169  0.75890066     0.27100
C637        C  0.46902138  0.92221990  0.74273643     0.35700
C638        C  0.02813269  0.92245756  0.74381250     0.35700
C639        C  0.46842498  0.57654396  0.74524354     0.35700
C640        C  0.02759018  0.57676641  0.74704530     0.35700
C641        C  0.38817991  0.97968018  0.76490215    -0.21800
C642        C  0.38791020  0.51743483  0.76522129    -0.21800
C643        C  0.10640338  0.98016295  0.77063917    -0.21800
C644        C  0.10628121  0.51791420  0.77131856    -0.21800
C645        C  0.48021121  0.88828504  0.73241163    -0.22800
C646        C  0.01779177  0.88846812  0.73302376    -0.22800
C647        C  0.47957961  0.61104048  0.73610694    -0.22800
C648        C  0.01715074  0.61119206  0.73727960    -0.22800
C649        C  0.43246057  0.93252491  0.74806588    -0.18200
C650        C  0.43172227  0.56558640  0.74935853    -0.18200
C651        C  0.06388363  0.56586359  0.75301053    -0.18200
C652        C  0.06427373  0.93303943  0.75055950    -0.18200
H653        H  0.36585218  0.96206345  0.77161093     0.14700
H654        H  0.36537642  0.53458248  0.77225465     0.14700
H655        H  0.12830126  0.96259893  0.77826757     0.14700
H656        H  0.12806127  0.53517111  0.77957861     0.14700
H657        H  0.46307988  0.86564373  0.72554274     0.13000
H658        H  0.03543900  0.86597141  0.72670727     0.13000
H659        H  0.46246153  0.63379834  0.72947107     0.13000
H660        H  0.03471641  0.63406600  0.73173240     0.13000
H661        H  0.46667556  0.49951130  0.73617212     0.26300
H662        H  0.03046809  0.49982153  0.73774405     0.26300
Zn663      Zn  0.29518449  0.75155641  0.97413130     1.49700
Zn664      Zn  0.24940465  0.79477328  0.52429323     1.49400
Zn665      Zn  0.20767652  0.75035009  0.97521348     1.51300
Zn666      Zn  0.25054614  0.70731214  0.52374907     1.49500
O667        O  0.25184460  0.75088796  0.99933688    -1.84000
O668        O  0.32570462  0.79674178  0.98154361    -0.74600
O669        O  0.20460823  0.82500318  0.51710893    -0.74400
O670        O  0.22004115  0.75119348  0.93242964    -0.74000
O671        O  0.29316082  0.82696596  0.51721413    -0.74600
O672        O  0.28098516  0.75161451  0.93169232    -0.74200
O673        O  0.17555807  0.79389600  0.98368583    -0.74800
O674        O  0.20678644  0.67560716  0.51576949    -0.74200
O675        O  0.24900330  0.78119216  0.56671009    -0.75000
O676        O  0.17801335  0.70495996  0.98256804    -0.74400
O677        O  0.24957077  0.72014575  0.56643522    -0.74800
O678        O  0.29541400  0.67686210  0.51621389    -0.74700
O679        O  0.32695877  0.70707852  0.98107254    -0.74500
C680        C  0.32231774  0.82394587  0.99879751     0.77300
C681        C  0.17868378  0.82125580  0.00077519     0.77800
C682        C  0.25025774  0.75145371  0.91866102     0.76700
C683        C  0.18172626  0.67749216  0.99945815     0.77100
C684        C  0.24894357  0.75058359  0.57995802     0.78200
C685        C  0.32457776  0.68010366  0.99864754     0.77300
Zn686      Zn  0.20480873  0.74945907  0.77418009     1.49700
Zn687      Zn  0.24825336  0.79348837  0.72485203     1.49400
Zn688      Zn  0.29211788  0.74907767  0.77360372     1.49100
Zn689      Zn  0.24756160  0.70564120  0.72427907     1.49500
O690        O  0.24818570  0.74938340  0.74918550    -1.84000
O691        O  0.17342733  0.79377883  0.76657651    -0.74600
O692        O  0.29315586  0.82401244  0.73213756    -0.74400
O693        O  0.27943311  0.74933376  0.81631505    -0.74000
O694        O  0.20403047  0.82490788  0.73283852    -0.74600
O695        O  0.21851463  0.75033605  0.81667376    -0.74200
O696        O  0.32376018  0.79321527  0.76604235    -0.74800
O697        O  0.29250402  0.67459889  0.73079064    -0.74200
O698        O  0.24789101  0.78060897  0.68219873    -0.75000
O699        O  0.32250814  0.70438663  0.76562674    -0.74400
O700        O  0.24668074  0.71953692  0.68183604    -0.74800
O701        O  0.20330649  0.67406544  0.73249813    -0.74700
O702        O  0.17414051  0.70444020  0.76746485    -0.74500
C703        C  0.17664282  0.82145928  0.74982258     0.77300
C704        C  0.32066936  0.82058308  0.74897077     0.77800
C705        C  0.24909879  0.75009322  0.82989663     0.76700
C706        C  0.31963512  0.67744548  0.74810166     0.77100
C707        C  0.24721460  0.75019902  0.66863577     0.78200
C708        C  0.17672119  0.67704327  0.75035094     0.77300
C709        C  0.24969039  0.75129332  0.88741151    -0.13100
C710        C  0.24938240  0.75078120  0.86114159    -0.14700
C711        C  0.24804774  0.75044174  0.61116739    -0.13100
C712        C  0.24739767  0.75043994  0.63741705    -0.14700
C713        C  0.14956892  0.87982678  0.73052575    -0.13200
C714        C  0.14800208  0.85018104  0.75014319     0.08900
C715        C  0.11879573  0.84826042  0.77010797    -0.13200
C716        C  0.09173213  0.87532004  0.77037705    -0.13200
C717        C  0.09333242  0.90467583  0.75065723     0.08900
C718        C  0.12244121  0.90683609  0.73079691    -0.13200
H719        H  0.17165891  0.88209408  0.71486647     0.12900
H720        H  0.11684314  0.82587235  0.78556062     0.12900
H721        H  0.06945754  0.87338599  0.78591391     0.12900
H722        H  0.12396171  0.92933125  0.71539637     0.12900
C723        C  0.37647300  0.90360007  0.72693000    -0.13200
C724        C  0.40398754  0.90363512  0.74821648     0.08900
C725        C  0.40435394  0.87621274  0.76966755    -0.13200
C726        C  0.37736962  0.84905929  0.76988323    -0.13200
C727        C  0.34954683  0.84900823  0.74865752     0.08900
C728        C  0.34945121  0.87652369  0.72713816    -0.13200
H729        H  0.37600310  0.92454624  0.71016725     0.12900
H730        H  0.42545079  0.87600525  0.78628339     0.12900
H731        H  0.37814163  0.82830459  0.78677970     0.12900
H732        H  0.32853323  0.87710786  0.71040109     0.12900
C733        C  0.40350521  0.62272981  0.76942789    -0.13200
C734        C  0.40273905  0.59407067  0.74905159     0.08900
C735        C  0.37460663  0.59280495  0.72823599    -0.13200
C736        C  0.34757899  0.61995021  0.72778157    -0.13200
C737        C  0.34833749  0.64882065  0.74814435     0.08900
C738        C  0.37666593  0.64994064  0.76891224    -0.13200
H739        H  0.42497606  0.62400436  0.78570416     0.12900
H740        H  0.37372858  0.57087465  0.71229802     0.12900
H741        H  0.32617061  0.61835470  0.71148317     0.12900
H742        H  0.37801160  0.67173679  0.78493076     0.12900
C743        C  0.09333615  0.62231233  0.77344579    -0.13200
C744        C  0.09321925  0.59396545  0.75279200     0.08900
C745        C  0.12084830  0.59258761  0.73157112    -0.13200
C746        C  0.14811754  0.61946351  0.73080764    -0.13200
C747        C  0.14818893  0.64819027  0.75130221     0.08900
C748        C  0.12056847  0.64921146  0.77271283    -0.13200
H749        H  0.07224996  0.62362232  0.79003843     0.12900
H750        H  0.12103441  0.57085959  0.71544299     0.12900
H751        H  0.16894970  0.61789101  0.71403832     0.12900
H752        H  0.11994068  0.67083499  0.78890631     0.12900
C753        C  0.09122779  0.87295300  0.98384403    -0.13200
C754        C  0.09501629  0.90418889  0.00150378     0.08900
C755        C  0.12398586  0.90690724  0.52149189    -0.13200
C756        C  0.15118151  0.88006971  0.52048942    -0.13200
C757        C  0.14964428  0.84953980  0.00128908     0.08900
C758        C  0.11817379  0.84576377  0.98386375    -0.13200
H759        H  0.06742701  0.86971421  0.96997692     0.12900
H760        H  0.12682886  0.92967204  0.53651990     0.12900
H761        H  0.17457472  0.88276358  0.53484839     0.12900
H762        H  0.11446249  0.82193301  0.97006747     0.12900
C763        C  0.37539110  0.90947178  0.01936162    -0.13200
C764        C  0.40538196  0.90744494  0.00033338     0.08900
C765        C  0.40645495  0.87817201  0.48246738    -0.13200
C766        C  0.38049763  0.85140790  0.97964802    -0.13200
C767        C  0.35056407  0.85307183  0.99891154     0.08900
C768        C  0.34817864  0.88256455  0.01864027    -0.13200
H769        H  0.37324722  0.93176639  0.03489959     0.12900
H770        H  0.42960564  0.87602174  0.46778721     0.12900
H771        H  0.38308242  0.82916496  0.96412169     0.12900
H772        H  0.32545678  0.88470692  0.03372725     0.12900
C773        C  0.40723189  0.62340991  0.97687876    -0.13200
C774        C  0.40844464  0.59756573  0.99950913     0.08900
C775        C  0.37750866  0.59599018  0.52007326    -0.13200
C776        C  0.35481786  0.62553659  0.02134596    -0.13200
C777        C  0.35346761  0.65166707  0.99878219     0.08900
C778        C  0.37994588  0.65030780  0.97651025    -0.13200
H779        H  0.42732080  0.62259611  0.95950018     0.12900
H780        H  0.37621447  0.57424942  0.53615896     0.12900
H781        H  0.32832810  0.62114294  0.53553024     0.12900
H782        H  0.37947164  0.66989037  0.95874611     0.12900
C783        C  0.12781711  0.59228194  0.01948382    -0.13200
C784        C  0.09855544  0.59421570  0.99971884     0.08900
C785        C  0.09497837  0.62304030  0.47953864    -0.13200
C786        C  0.12214242  0.64998891  0.47873721    -0.13200
C787        C  0.15352476  0.64838417  0.99928173     0.08900
C788        C  0.15513486  0.61912226  0.01925675    -0.13200
H789        H  0.12924170  0.57018886  0.03525416     0.12900
H790        H  0.07266063  0.62416083  0.46399527     0.12900
H791        H  0.12017903  0.67154240  0.46255149     0.12900
H792        H  0.17725750  0.61716582  0.03491299     0.12900
N793        N  0.55763840  0.99999075  0.00225946    -0.36500
N794        N  0.00282842  0.05732108  0.00023334    -0.57000
N795        N  0.94581815  0.00210374  0.00210205    -0.36500
N796        N  0.00070771  0.44475742  0.00102591    -0.57000
C797        C  0.57816289  0.02935575  0.99472239     0.27100
C798        C  0.57690860  0.46968688  0.99492396     0.27100
C799        C  0.92637150  0.03218990  0.99457438     0.27100
C800        C  0.92523410  0.47254860  0.99515149     0.27100
C801        C  0.53276811  0.07788372  0.00576036     0.35700
C802        C  0.97359575  0.07907503  0.00530259     0.35700
C803        C  0.52987991  0.42356322  0.00759067     0.35700
C804        C  0.97071484  0.42471426  0.00750644     0.35700
C805        C  0.61078845  0.01764107  0.98236075    -0.21800
C806        C  0.60993772  0.47991322  0.98236941    -0.21800
C807        C  0.89300689  0.02168862  0.98279707    -0.21800
C808        C  0.89232887  0.48396409  0.98307504    -0.21800
C809        C  0.52251912  0.11285529  0.01445732    -0.22800
C810        C  0.98492669  0.11363717  0.01407264    -0.22800
C811        C  0.51839403  0.39001719  0.01852638    -0.22800
C812        C  0.98080378  0.39071643  0.01839130    -0.22800
C813        C  0.56903449  0.06629585  0.00046146    -0.18200
C814        C  0.56648204  0.43326139  0.00147167    -0.18200
C815        C  0.93454711  0.43575789  0.00131242    -0.18200
C816        C  0.93702314  0.06878395  0.99992404    -0.18200
H817        H  0.63300743  0.03452022  0.97435118     0.14700
H818        H  0.63141248  0.46206390  0.97440427     0.14700
H819        H  0.87130116  0.03938868  0.97501604     0.14700
H820        H  0.86998647  0.46691199  0.97554132     0.14700
H821        H  0.54023302  0.13560416  0.02002872     0.13000
H822        H  0.96791880  0.13706720  0.01926490     0.13000
H823        H  0.53527500  0.36726496  0.02553915     0.13000
H824        H  0.96295715  0.36861604  0.02521517     0.13000
H825        H  0.53399972  0.00059018  0.01493892     0.26300
H826        H  0.96974030  0.00184731  0.01443907     0.26300
N827        N  0.94394074  0.99834746  0.24832629    -0.36500
N828        N  0.50000358  0.44197377  0.25095214    -0.57000
N829        N  0.55570955  0.99837135  0.25070666    -0.36500
N830        N  0.49968687  0.05475024  0.25147278    -0.57000
C831        C  0.92357940  0.46852069  0.25497233     0.27100
C832        C  0.92335950  0.02821258  0.25437250     0.27100
C833        C  0.57571824  0.46841033  0.25763648     0.27100
C834        C  0.57550672  0.02810131  0.25855027     0.27100
C835        C  0.97050200  0.42108583  0.24474911     0.35700
C836        C  0.52966556  0.42120819  0.24493317     0.35700
C837        C  0.97040775  0.07557708  0.24445317     0.35700
C838        C  0.52953986  0.07564345  0.24636435     0.35700
C839        C  0.88961362  0.47952412  0.26530543    -0.21800
C840        C  0.88948701  0.01727833  0.26495477    -0.21800
C841        C  0.60854930  0.47919525  0.27020768    -0.21800
C842        C  0.60843443  0.01697111  0.27074592    -0.21800
C843        C  0.98137648  0.38687309  0.23482225    -0.22800
C844        C  0.51895884  0.38701728  0.23476104    -0.22800
C845        C  0.98168000  0.10983878  0.23488405    -0.22800
C846        C  0.51922462  0.10988804  0.23611329    -0.22800
C847        C  0.93398768  0.43177908  0.24984922    -0.18200
C848        C  0.93367166  0.06488244  0.24874862    -0.18200
C849        C  0.56576979  0.06483901  0.25264680    -0.18200
C850        C  0.56605698  0.43186826  0.25085931    -0.18200
H851        H  0.86709951  0.46216801  0.27204839     0.14700
H852        H  0.86687481  0.03465517  0.27144905     0.14700
H853        H  0.63051638  0.46170251  0.27781460     0.14700
H854        H  0.63031358  0.03427083  0.27878075     0.14700
H855        H  0.96404876  0.36415983  0.22843246     0.13000
H856        H  0.53634776  0.36437764  0.22832397     0.13000
H857        H  0.96463223  0.13251629  0.22796487     0.13000
H858        H  0.53687387  0.13259099  0.23029379     0.13000
H859        H  0.96861844  0.99829234  0.23701650     0.26300
H860        H  0.53217442  0.99858138  0.23792361     0.26300
Zn861      Zn  0.79399267  0.25207553  0.47495103     1.49700
Zn862      Zn  0.75154313  0.29453850  0.02416801     1.49400
Zn863      Zn  0.70618727  0.25098381  0.47466316     1.51300
Zn864      Zn  0.75275651  0.20704339  0.02394191     1.49500
O865        O  0.75001994  0.25126278  0.49934139    -1.84000
O866        O  0.82425583  0.29716524  0.48299439    -0.74600
O867        O  0.70645768  0.32489232  0.01730009    -0.74400
O868        O  0.71978613  0.25174482  0.43214656    -0.74000
O869        O  0.79523507  0.32646312  0.01615278    -0.74600
O870        O  0.78076837  0.25233052  0.43237432    -0.74200
O871        O  0.67409122  0.29485207  0.48277477    -0.74800
O872        O  0.70906726  0.17474941  0.01653297    -0.74200
O873        O  0.75226192  0.28112939  0.06679249    -0.75000
O874        O  0.67591124  0.20563283  0.48156614    -0.74400
O875        O  0.75252228  0.22008282  0.06653813    -0.74800
O876        O  0.79779433  0.17707867  0.01626061    -0.74700
O877        O  0.82564855  0.20757278  0.48205384    -0.74500
C878        C  0.82059686  0.32438613  0.50018434     0.77300
C879        C  0.67710244  0.32185059  0.50025573     0.77800
C880        C  0.75036014  0.25205830  0.41887987     0.76700
C881        C  0.67951116  0.17826318  0.49859322     0.77100
C882        C  0.75235987  0.25050776  0.08006814     0.78200
C883        C  0.82265580  0.18012752  0.49909284     0.77300
Zn884      Zn  0.70652417  0.24872781  0.27439909     1.49700
Zn885      Zn  0.75033816  0.29249978  0.22505191     1.49400
Zn886      Zn  0.79374898  0.24808397  0.27404597     1.49100
Zn887      Zn  0.74916203  0.20477388  0.22458450     1.49500
O888        O  0.74995980  0.24846598  0.24947671    -1.84000
O889        O  0.67543520  0.29291318  0.26641993    -0.74600
O890        O  0.79477903  0.32338988  0.23292069    -0.74400
O891        O  0.78089144  0.24842347  0.31670632    -0.74000
O892        O  0.70584084  0.32372177  0.23238598    -0.74600
O893        O  0.71999322  0.25010740  0.31689011    -0.74200
O894        O  0.82521372  0.29244157  0.26683304    -0.74800
O895        O  0.79375794  0.17336384  0.23155344    -0.74200
O896        O  0.75112086  0.27959337  0.18244476    -0.75000
O897        O  0.82421165  0.20339347  0.26602743    -0.74400
O898        O  0.74917282  0.21855325  0.18198443    -0.74800
O899        O  0.70445586  0.17381216  0.23264470    -0.74700
O900        O  0.67549959  0.20391939  0.26786777    -0.74500
C901        C  0.67851287  0.32036491  0.24943527     0.77300
C902        C  0.82209675  0.31998725  0.24994832     0.77800
C903        C  0.75051255  0.24968465  0.33019036     0.76700
C904        C  0.82109116  0.17630660  0.24866002     0.77100
C905        C  0.75042226  0.24924016  0.16881858     0.78200
C906        C  0.67791170  0.17671902  0.25054877     0.77300
C907        C  0.75056184  0.25168808  0.38765575    -0.13100
C908        C  0.75064527  0.25081090  0.36140544    -0.14700
C909        C  0.75196684  0.25020618  0.11131432    -0.13100
C910        C  0.75124053  0.24969107  0.13757756    -0.14700
C911        C  0.65222884  0.37962910  0.23119417    -0.13200
C912        C  0.64980601  0.34896278  0.24971891     0.08900
C913        C  0.61977298  0.34598225  0.26878419    -0.13200
C914        C  0.59280893  0.37307964  0.26935111    -0.13200
C915        C  0.59515294  0.40346503  0.25068270     0.08900
C916        C  0.62507745  0.40661550  0.23165263    -0.13200
H917        H  0.67504175  0.38275994  0.21630405     0.12900
H918        H  0.61711487  0.32275551  0.28336308     0.12900
H919        H  0.56998175  0.37033194  0.28428862     0.12900
H920        H  0.62726512  0.42990976  0.21707699     0.12900
C921        C  0.87859984  0.40255160  0.22805578    -0.13200
C922        C  0.90526785  0.40314356  0.25001213     0.08900
C923        C  0.90464808  0.37644278  0.27202073    -0.13200
C924        C  0.87761703  0.34932994  0.27203521    -0.13200
C925        C  0.85075862  0.34861026  0.25004432     0.08900
C926        C  0.85152339  0.37553458  0.22807182    -0.13200
H927        H  0.87889635  0.42295952  0.21087521     0.12900
H928        H  0.92506503  0.37670389  0.28916543     0.12900
H929        H  0.87763595  0.32907811  0.28932456     0.12900
H930        H  0.83133535  0.37560001  0.21076765     0.12900
C931        C  0.90570957  0.12206549  0.26896788    -0.13200
C932        C  0.90484299  0.09353698  0.24847583     0.08900
C933        C  0.87640092  0.09220383  0.22793359    -0.13200
C934        C  0.84909266  0.11907202  0.22793225    -0.13200
C935        C  0.84989164  0.14776553  0.24845497     0.08900
C936        C  0.87857175  0.14899986  0.26891146    -0.13200
H937        H  0.92739712  0.12336464  0.28505961     0.12900
H938        H  0.87541473  0.07034877  0.21193463     0.12900
H939        H  0.82744241  0.11741159  0.21184250     0.12900
H940        H  0.87997252  0.17067797  0.28502798     0.12900
C941        C  0.59433799  0.12180699  0.27304161    -0.13200
C942        C  0.59492818  0.09312832  0.25266037     0.08900
C943        C  0.62290779  0.09178170  0.23175343    -0.13200
C944        C  0.64988639  0.11891933  0.23106588    -0.13200
C945        C  0.64935131  0.14789597  0.25132649     0.08900
C946        C  0.62130070  0.14899768  0.27237931    -0.13200
H947        H  0.57290330  0.12315352  0.28934857     0.12900
H948        H  0.62359854  0.06986367  0.21579903     0.12900
H949        H  0.67104161  0.11728984  0.21456106     0.12900
H950        H  0.62015991  0.17085995  0.28835284     0.12900
C951        C  0.59022443  0.37480232  0.48383672    -0.13200
C952        C  0.59337995  0.40452823  0.50313717     0.08900
C953        C  0.62621780  0.40784299  0.01912112    -0.13200
C954        C  0.65334457  0.38086897  0.01894309    -0.13200
C955        C  0.64816334  0.35019485  0.50119295     0.08900
C956        C  0.61731651  0.34776980  0.48293879    -0.13200
H957        H  0.56685222  0.37268321  0.46938235     0.12900
H958        H  0.62957536  0.43169797  0.03296356     0.12900
H959        H  0.67725183  0.38463676  0.03259384     0.12900
H960        H  0.61417975  0.32510606  0.46786815     0.12900
C961        C  0.87347991  0.41015818  0.52058791    -0.13200
C962        C  0.90393587  0.40758354  0.50205212     0.08900
C963        C  0.90764704  0.37838664  0.98033574    -0.13200
C964        C  0.87928813  0.35127244  0.48173501    -0.13200
C965        C  0.84892157  0.35342178  0.50052476     0.08900
C966        C  0.84616664  0.38332339  0.51983143    -0.13200
H967        H  0.87105581  0.43281074  0.53576973     0.12900
H968        H  0.93052610  0.37658970  0.96535650     0.12900
H969        H  0.88215805  0.32872504  0.46652304     0.12900
H970        H  0.82307214  0.38585923  0.53451772     0.12900
C971        C  0.90766125  0.12567329  0.47937409    -0.13200
C972        C  0.90642629  0.09730573  0.50002702     0.08900
C973        C  0.88207441  0.09870866  0.02168277    -0.13200
C974        C  0.85013511  0.12270791  0.51959040    -0.13200
C975        C  0.85139073  0.15147193  0.49914971     0.08900
C976        C  0.88039130  0.15258774  0.47895015    -0.13200
H977        H  0.92974501  0.12691194  0.46362308     0.12900
H978        H  0.88272699  0.07886095  0.03926946     0.12900
H979        H  0.83487699  0.12587417  0.03883856     0.12900
H980        H  0.88202386  0.17423234  0.46281937     0.12900
C981        C  0.62568138  0.09373384  0.52016625    -0.13200
C982        C  0.59641872  0.09493153  0.50040698     0.08900
C983        C  0.59729662  0.12286547  0.97936844    -0.13200
C984        C  0.62443262  0.14979300  0.97920863    -0.13200
C985        C  0.65131602  0.14913884  0.49872980     0.08900
C986        C  0.65293904  0.12055541  0.51931795    -0.13200
H987        H  0.62717958  0.07219075  0.53640602     0.12900
H988        H  0.57508889  0.12448894  0.96375386     0.12900
H989        H  0.62253575  0.17178347  0.96339558     0.12900
H990        H  0.67503602  0.11912968  0.53503138     0.12900
N991        N  0.55610437  0.00043406  0.50438745    -0.36500
N992        N  0.00105796  0.05749827  0.50149302    -0.57000
N993        N  0.94430039  0.00213481  0.50353298    -0.36500
N994        N  0.99925877  0.44507965  0.50353151    -0.57000
C995        C  0.57658676  0.02976705  0.49664963     0.27100
C996        C  0.57557791  0.47010527  0.49749400     0.27100
C997        C  0.92514840  0.03203351  0.49508769     0.27100
C998        C  0.92414336  0.47243413  0.49620522     0.27100
C999        C  0.53087610  0.07816750  0.50711016     0.35700
C1000       C  0.97171661  0.07907741  0.50661436     0.35700
C1001       C  0.52844520  0.42380586  0.50981223     0.35700
C1002       C  0.96928682  0.42480160  0.50958076     0.35700
C1003       C  0.60944534  0.01798656  0.48473500    -0.21800
C1004       C  0.60878759  0.48028063  0.48522159    -0.21800
C1005       C  0.89254799  0.02124514  0.48218205    -0.21800
C1006       C  0.89193097  0.48354411  0.48285069    -0.21800
C1007       C  0.52047801  0.11300763  0.51598978    -0.22800
C1008       C  0.98288017  0.11357750  0.51569675    -0.22800
C1009       C  0.51702005  0.38993570  0.52013553    -0.22800
C1010       C  0.97942831  0.39057426  0.51999680    -0.22800
C1011       C  0.56715580  0.06679026  0.50172947    -0.18200
C1012       C  0.56500729  0.43365273  0.50378404    -0.18200
C1013       C  0.93318834  0.43579144  0.50306102    -0.18200
C1014       C  0.93528101  0.06870899  0.50072140    -0.18200
H1015       H  0.63168081  0.03480916  0.47668219     0.14700
H1016       H  0.63043084  0.46241277  0.47757914     0.14700
H1017       H  0.87128657  0.03875941  0.47342210     0.14700
H1018       H  0.87010090  0.46628317  0.47468814     0.14700
H1019       H  0.53811688  0.13578551  0.52164439     0.13000
H1020       H  0.96577550  0.13687152  0.52105857     0.13000
H1021       H  0.53396396  0.36698434  0.52663334     0.13000
H1022       H  0.96163479  0.36819550  0.52631383     0.13000
H1023       H  0.53222585  0.00112988  0.51674708     0.26300
H1024       H  0.96752150  0.00215357  0.51669134     0.26300
N1025       N  0.94215033  0.99914667  0.74769680    -0.36500
N1026       N  0.49829572  0.44302585  0.74963301    -0.57000
N1027       N  0.55381529  0.99947802  0.75081367    -0.36500
N1028       N  0.49779934  0.05569222  0.75197572    -0.57000
C1029       C  0.92196242  0.46907952  0.75398613     0.27100
C1030       C  0.92160784  0.02876930  0.75449465     0.27100
C1031       C  0.57373214  0.46948047  0.75771953     0.27100
C1032       C  0.57351321  0.02912749  0.75894415     0.27100
C1033       C  0.96900215  0.42221697  0.74276466     0.35700
C1034       C  0.52812335  0.42245004  0.74379761     0.35700
C1035       C  0.96843843  0.07654611  0.74521793     0.35700
C1036       C  0.52759164  0.07677056  0.74707565     0.35700
C1037       C  0.88815954  0.47968961  0.76491343    -0.21800
C1038       C  0.88793415  0.01744836  0.76522222    -0.21800
C1039       C  0.60639475  0.48015825  0.77061496    -0.21800
C1040       C  0.60628104  0.01791648  0.77135808    -0.21800
C1041       C  0.98018299  0.38827747  0.73244385    -0.22800
C1042       C  0.51777673  0.38845969  0.73301362    -0.22800
C1043       C  0.97960103  0.11103694  0.73607389    -0.22800
C1044       C  0.51715917  0.11118970  0.73729101    -0.22800
C1045       C  0.93244415  0.43252931  0.74809494    -0.18200
C1046       C  0.93173385  0.06559295  0.74932679    -0.18200
C1047       C  0.56388151  0.06587022  0.75305794    -0.18200
C1048       C  0.56426680  0.43303183  0.75053722    -0.18200
H1049       H  0.86582419  0.46207534  0.77161042     0.14700
H1050       H  0.86540827  0.03459886  0.77226714     0.14700
H1051       H  0.62828953  0.46259488  0.77824987     0.14700
H1052       H  0.62805939  0.03517143  0.77962364     0.14700
H1053       H  0.96304525  0.36563707  0.72558293     0.13000
H1054       H  0.53542047  0.36596256  0.72669206     0.13000
H1055       H  0.96248891  0.13379065  0.72941939     0.13000
H1056       H  0.53472850  0.13406143  0.73174542     0.13000
H1057       H  0.96667689  0.99951464  0.73613533     0.26300
H1058       H  0.53047527  0.99983527  0.73777053     0.26300
Zn1059     Zn  0.79519146  0.25155104  0.97412385     1.49700
Zn1060     Zn  0.74940753  0.29477580  0.52427848     1.49400
Zn1061     Zn  0.70767773  0.25034403  0.97520194     1.51300
Zn1062     Zn  0.75052763  0.20730786  0.52374209     1.49500
O1063       O  0.75184722  0.25088557  0.99932540    -1.84000
O1064       O  0.82571457  0.29673927  0.98153060    -0.74600
O1065       O  0.70460852  0.32500119  0.51709423    -0.74400
O1066       O  0.72004892  0.25117846  0.93241854    -0.74000
O1067       O  0.79316279  0.32697565  0.51719063    -0.74600
O1068       O  0.78099362  0.25159689  0.93168472    -0.74200
O1069       O  0.67556576  0.29389823  0.98367188    -0.74800
O1070       O  0.70676320  0.17560342  0.51576717    -0.74200
O1071       O  0.74900492  0.28119743  0.56669754    -0.75000
O1072       O  0.67800566  0.20495388  0.98255902    -0.74400
O1073       O  0.74954945  0.22015018  0.56642593    -0.74800
O1074       O  0.79539248  0.17684985  0.51621054    -0.74700
O1075       O  0.82696270  0.20707295  0.98107292    -0.74500
C1076       C  0.82232787  0.32394566  0.99878248     0.77300
C1077       C  0.67869300  0.32125913  0.00076049     0.77800
C1078       C  0.75026718  0.25143349  0.91865179     0.76700
C1079       C  0.68171558  0.17749288  0.99945711     0.77100
C1080       C  0.74893144  0.25058947  0.57994701     0.78200
C1081       C  0.82457376  0.18009453  0.99864383     0.77300
Zn1082     Zn  0.70481457  0.24946330  0.77417458     1.49700
Zn1083     Zn  0.74825795  0.29348504  0.72484222     1.49400
Zn1084     Zn  0.79211943  0.24906733  0.77359072     1.49100
Zn1085     Zn  0.74755092  0.20563672  0.72426819     1.49500
O1086       O  0.74818624  0.24937952  0.74917495    -1.84000
O1087       O  0.67343481  0.29378282  0.76657120    -0.74600
O1088       O  0.79316744  0.32400150  0.73212291    -0.74400
O1089       O  0.77944232  0.24930081  0.81630357    -0.74000
O1090       O  0.70404030  0.32491152  0.73283444    -0.74600
O1091       O  0.71852488  0.25033595  0.81666663    -0.74200
O1092       O  0.82375500  0.29321281  0.76604271    -0.74800
O1093       O  0.79249445  0.17459035  0.73077057    -0.74200
O1094       O  0.74788388  0.28060653  0.68218935    -0.75000
O1095       O  0.82251136  0.20438426  0.76559636    -0.74400
O1096       O  0.74665821  0.21953463  0.68182424    -0.74800
O1097       O  0.70329665  0.17406427  0.73249979    -0.74700
O1098       O  0.67414250  0.20444854  0.76746754    -0.74500
C1099       C  0.67665173  0.32146351  0.74981783     0.77300
C1100       C  0.82067187  0.32057639  0.74896608     0.77800
C1101       C  0.74911003  0.25007233  0.82988743     0.76700
C1102       C  0.81963335  0.17744140  0.74807352     0.77100
C1103       C  0.74719681  0.25019779  0.66862513     0.78200
C1104       C  0.67671710  0.17704757  0.75035765     0.77300
C1105       C  0.74970309  0.25126578  0.88740230    -0.13100
C1106       C  0.74939651  0.25075315  0.86113240    -0.14700
C1107       C  0.74802956  0.25044862  0.61115648    -0.13100
C1108       C  0.74737654  0.25044223  0.63740620    -0.14700
C1109       C  0.64959924  0.37985205  0.73054163    -0.13200
C1110       C  0.64800896  0.35018358  0.75013598     0.08900
C1111       C  0.61877363  0.34823518  0.77007210    -0.13200
C1112       C  0.59170468  0.37528951  0.77033545    -0.13200
C1113       C  0.59332687  0.40466768  0.75063733     0.08900
C1114       C  0.62246537  0.40685525  0.73080605    -0.13200
H1115       H  0.67171251  0.38214212  0.71490534     0.12900
H1116       H  0.61680137  0.32582848  0.78550609     0.12900
H1117       H  0.56940905  0.37333401  0.78585144     0.12900
H1118       H  0.62400557  0.42936836  0.71542335     0.12900
C1119       C  0.87654295  0.40352998  0.72688593    -0.13200
C1120       C  0.90397038  0.40364381  0.74824261     0.08900
C1121       C  0.90426027  0.37629507  0.76975287    -0.13200
C1122       C  0.87728256  0.34913483  0.76995821    -0.13200
C1123       C  0.84954584  0.34900389  0.74866142     0.08900
C1124       C  0.84952895  0.37644531  0.72708231    -0.13200
H1125       H  0.87613753  0.42441807  0.71007638     0.12900
H1126       H  0.92529244  0.37614988  0.78642107     0.12900
H1127       H  0.87798957  0.32843932  0.78690239     0.12900
H1128       H  0.82868000  0.37696300  0.71028921     0.12900
C1129       C  0.90354373  0.12276792  0.76936414    -0.13200
C1130       C  0.90275035  0.09407821  0.74901561     0.08900
C1131       C  0.87458475  0.09277840  0.72822914    -0.13200
C1132       C  0.84755249  0.11991959  0.72777639    -0.13200
C1133       C  0.84833989  0.14882055  0.74811106     0.08900
C1134       C  0.87670147  0.14997497  0.76884890    -0.13200
H1135       H  0.92503779  0.12406879  0.78561966     0.12900
H1136       H  0.87368291  0.07082345  0.71231349     0.12900
H1137       H  0.82611690  0.11829583  0.71150247     0.12900
H1138       H  0.87807094  0.17179520  0.78484536     0.12900
C1139       C  0.59333496  0.12232871  0.77347754    -0.13200
C1140       C  0.59321856  0.09396976  0.75283424     0.08900
C1141       C  0.62084595  0.09258085  0.73161264    -0.13200
C1142       C  0.64811367  0.11945687  0.73083768    -0.13200
C1143       C  0.64818519  0.14819554  0.75132116     0.08900
C1144       C  0.62056647  0.14922843  0.77273320    -0.13200
H1145       H  0.57224892  0.12364824  0.79006985     0.12900
H1146       H  0.62103115  0.07084417  0.71549190     0.12900
H1147       H  0.66894448  0.11787498  0.71406789     0.12900
H1148       H  0.61993897  0.17086189  0.78891834     0.12900
C1149       C  0.59123798  0.37295844  0.98382959    -0.13200
C1150       C  0.59502069  0.40418835  0.00149657     0.08900
C1151       C  0.62398244  0.40689848  0.52149585    -0.13200
C1152       C  0.65117907  0.38006219  0.52048695    -0.13200
C1153       C  0.64965357  0.34954368  0.00127546     0.08900
C1154       C  0.61818634  0.34577158  0.98384599    -0.13200
H1155       H  0.56743996  0.36972272  0.96995907     0.12900
H1156       H  0.62682780  0.42966065  0.53652609     0.12900
H1157       H  0.67457465  0.38275453  0.53484366     0.12900
H1158       H  0.61447915  0.32194539  0.97004407     0.12900
C1159       C  0.87539547  0.40948007  0.01933863    -0.13200
C1160       C  0.90539274  0.40744740  0.00031705     0.08900
C1161       C  0.90648630  0.37814977  0.48246324    -0.13200
C1162       C  0.88051478  0.35140252  0.97963876    -0.13200
C1163       C  0.85057469  0.35307248  0.99889561     0.08900
C1164       C  0.84818317  0.38257226  0.01861744    -0.13200
H1165       H  0.87324624  0.43177993  0.03487139     0.12900
H1166       H  0.92966344  0.37596657  0.46781268     0.12900
H1167       H  0.88310484  0.32915414  0.96411793     0.12900
H1168       H  0.82545636  0.38471998  0.03369918     0.12900
C1169       C  0.90724654  0.12341655  0.97689441    -0.13200
C1170       C  0.90844399  0.09755971  0.99951606     0.08900
C1171       C  0.87742415  0.09590878  0.52002121    -0.13200
C1172       C  0.85479618  0.12551231  0.02133542    -0.13200
C1173       C  0.85346242  0.15165651  0.99878102     0.08900
C1174       C  0.87995836  0.15031194  0.97652185    -0.13200
H1175       H  0.92734926  0.12261470  0.95952560     0.12900
H1176       H  0.87607284  0.07411399  0.53605765     0.12900
H1177       H  0.82818267  0.12100156  0.53541694     0.12900
H1178       H  0.87949725  0.16990507  0.95876488     0.12900
C1179       C  0.62775603  0.09234087  0.01955688    -0.13200
C1180       C  0.59855350  0.09420687  0.99973347     0.08900
C1181       C  0.59500309  0.12298327  0.47948661    -0.13200
C1182       C  0.62216645  0.14993392  0.47868827    -0.13200
C1183       C  0.65351483  0.14838298  0.99928828     0.08900
C1184       C  0.65506922  0.11918630  0.01932695    -0.13200
H1185       H  0.62913644  0.07029854  0.03537455     0.12900
H1186       H  0.57271723  0.12407032  0.46391276     0.12900
H1187       H  0.62023686  0.17145406  0.46247198     0.12900
H1188       H  0.67714389  0.11728620  0.03503049     0.12900
N1189       N  0.55764279  0.49999557  0.00224436    -0.36500
N1190       N  0.00282802  0.55732676  0.00021197    -0.57000
N1191       N  0.94582000  0.50211075  0.00208751    -0.36500
N1192       N  0.00070370  0.94475149  0.00102527    -0.57000
C1193       C  0.57816131  0.52936046  0.99469794     0.27100
C1194       C  0.57690311  0.96968159  0.99493803     0.27100
C1195       C  0.92637228  0.53219592  0.99455852     0.27100
C1196       C  0.92523147  0.97254285  0.99516362     0.27100
C1197       C  0.53276830  0.57788485  0.00574671     0.35700
C1198       C  0.97359592  0.57908023  0.00528471     0.35700
C1199       C  0.52986912  0.92355933  0.00760022     0.35700
C1200       C  0.97071239  0.92470816  0.00751057     0.35700
C1201       C  0.61078280  0.51764579  0.98232885    -0.21800
C1202       C  0.60993796  0.97990846  0.98239270    -0.21800
C1203       C  0.89300727  0.52169327  0.98278333    -0.21800
C1204       C  0.89232702  0.98395963  0.98308724    -0.21800
C1205       C  0.52251816  0.61285026  0.01445935    -0.22800
C1206       C  0.98492690  0.61363947  0.01406123    -0.22800
C1207       C  0.51838228  0.89001650  0.01854193    -0.22800
C1208       C  0.98080311  0.89071141  0.01839593    -0.22800
C1209       C  0.56903458  0.56630001  0.00044115    -0.18200
C1210       C  0.56647167  0.93325503  0.00147991    -0.18200
C1211       C  0.93454376  0.93575184  0.00132201    -0.18200
C1212       C  0.93702353  0.56879014  0.99990657    -0.18200
H1213       H  0.63299672  0.53452483  0.97431032     0.14700
H1214       H  0.63141375  0.96205948  0.97442889     0.14700
H1215       H  0.87130058  0.53939259  0.97500290     0.14700
H1216       H  0.86998474  0.96690843  0.97555197     0.14700
H1217       H  0.54023083  0.63559511  0.02004329     0.13000
H1218       H  0.96791896  0.63706798  0.01925787     0.13000
H1219       H  0.53526257  0.86726591  0.02555903     0.13000
H1220       H  0.96295767  0.86861200  0.02522382     0.13000
H1221       H  0.53400876  0.50059618  0.01492990     0.26300
H1222       H  0.96974249  0.50185614  0.01442418     0.26300
N1223       N  0.94394046  0.49834083  0.24833607    -0.36500
N1224       N  0.50000665  0.94198691  0.25093965    -0.57000
N1225       N  0.55570929  0.49835523  0.25070333    -0.36500
N1226       N  0.49969105  0.55473854  0.25147894    -0.57000
C1227       C  0.92358457  0.96853077  0.25498212     0.27100
C1228       C  0.92335356  0.52820336  0.25437878     0.27100
C1229       C  0.57572469  0.96842711  0.25762902     0.27100
C1230       C  0.57550588  0.52808434  0.25855079     0.27100
C1231       C  0.97049857  0.92109609  0.24474674     0.35700
C1232       C  0.52967102  0.92122375  0.24492349     0.35700
C1233       C  0.97040701  0.57557464  0.24448411     0.35700
C1234       C  0.52954352  0.57563071  0.24636603     0.35700
C1235       C  0.88962991  0.97953930  0.26533487    -0.21800
C1236       C  0.88947062  0.51726318  0.26493635    -0.21800
C1237       C  0.60856291  0.97921355  0.27018810    -0.21800
C1238       C  0.60842435  0.51695242  0.27076132    -0.21800
C1239       C  0.98137252  0.88688705  0.23481149    -0.22800
C1240       C  0.51896822  0.88703168  0.23475119    -0.22800
C1241       C  0.98167715  0.60983961  0.23492128    -0.22800
C1242       C  0.51922488  0.60988057  0.23612699    -0.22800
C1243       C  0.93398557  0.93178798  0.24985559    -0.18200
C1244       C  0.93367018  0.56487737  0.24877425    -0.18200
C1245       C  0.56577505  0.56482301  0.25264282    -0.18200
C1246       C  0.56606121  0.93188491  0.25085328    -0.18200
H1247       H  0.86712247  0.96218641  0.27209710     0.14700
H1248       H  0.86685130  0.53463608  0.27142146     0.14700
H1249       H  0.63053741  0.96172185  0.27778286     0.14700
H1250       H  0.63029927  0.53425061  0.27880541     0.14700
H1251       H  0.96404444  0.86417591  0.22841769     0.13000
H1252       H  0.53636047  0.86439288  0.22831776     0.13000
H1253       H  0.96462802  0.63251952  0.22800922     0.13000
H1254       H  0.53687184  0.63258467  0.23030626     0.13000
H1255       H  0.96862967  0.49829038  0.23704225     0.26300
H1256       H  0.53218119  0.49856555  0.23791251     0.26300
Zn1257     Zn  0.79399129  0.75208010  0.47495603     1.49700
Zn1258     Zn  0.75153205  0.79453629  0.02417988     1.49400
Zn1259     Zn  0.70619144  0.75098318  0.47467268     1.51300
Zn1260     Zn  0.75275692  0.70704223  0.02395055     1.49500
O1261       O  0.75002326  0.75126397  0.49934963    -1.84000
O1262       O  0.82424863  0.79716772  0.48300581    -0.74600
O1263       O  0.70644363  0.82488507  0.01730901    -0.74400
O1264       O  0.71978345  0.75174457  0.43215700    -0.74000
O1265       O  0.79522505  0.82646304  0.01616784    -0.74600
O1266       O  0.78076516  0.75234271  0.43238039    -0.74200
O1267       O  0.67409058  0.79484491  0.48278102    -0.74800
O1268       O  0.70907521  0.67474024  0.01653209    -0.74200
O1269       O  0.75224567  0.78112484  0.06680518    -0.75000
O1270       O  0.67592215  0.70563490  0.48157841    -0.74400
O1271       O  0.75251293  0.72007837  0.06654911    -0.74800
O1272       O  0.79780248  0.67708712  0.01627039    -0.74700
O1273       O  0.82565281  0.70757938  0.48205055    -0.74500
C1274       C  0.82058857  0.82438657  0.50019741     0.77300
C1275       C  0.67709780  0.82184293  0.50026227     0.77800
C1276       C  0.75035549  0.75206543  0.41888834     0.76700
C1277       C  0.67952625  0.67826480  0.49860386     0.77100
C1278       C  0.75234536  0.75050270  0.08008035     0.78200
C1279       C  0.82266715  0.68013602  0.49909207     0.77300
Zn1280     Zn  0.70651209  0.74872556  0.27440826     1.49700
Zn1281     Zn  0.75032827  0.79250024  0.22506568     1.49400
Zn1282     Zn  0.79374377  0.74809121  0.27406088     1.49100
Zn1283     Zn  0.74916795  0.70477256  0.22460114     1.49500
O1284       O  0.74995396  0.74846710  0.24949079    -1.84000
O1285       O  0.67541698  0.79291131  0.26643152    -0.74600
O1286       O  0.79476373  0.82340082  0.23293858    -0.74400
O1287       O  0.78087905  0.74843930  0.31671803    -0.74000
O1288       O  0.70582537  0.82371478  0.23239647    -0.74600
O1289       O  0.71997964  0.75010233  0.31689980    -0.74200
O1290       O  0.82520613  0.79245068  0.26684517    -0.74800
O1291       O  0.79376880  0.67337163  0.23157437    -0.74200
O1292       O  0.75111226  0.77959029  0.18245808    -0.75000
O1293       O  0.82421295  0.70339851  0.26605487    -0.74400
O1294       O  0.74917360  0.71854961  0.18199985    -0.74800
O1295       O  0.70447116  0.67379826  0.23266292    -0.74700
O1296       O  0.67549440  0.70391303  0.26787109    -0.74500
C1297       C  0.67849619  0.82036114  0.24944481     0.77300
C1298       C  0.82208417  0.81999937  0.24996400     0.77800
C1299       C  0.75049894  0.74969095  0.33020060     0.76700
C1300       C  0.82109710  0.67631237  0.24868611     0.77100
C1301       C  0.75041642  0.74923614  0.16883270     0.78200
C1302       C  0.67791914  0.67670627  0.25055934     0.77300
C1303       C  0.75055260  0.75169683  0.38766490    -0.13100
C1304       C  0.75063139  0.75081921  0.36141498    -0.14700
C1305       C  0.75195151  0.75020008  0.11132724    -0.13100
C1306       C  0.75122905  0.74968557  0.13759095    -0.14700
C1307       C  0.65220015  0.87960449  0.23117226    -0.13200
C1308       C  0.64979240  0.84896300  0.24972469     0.08900
C1309       C  0.61977996  0.84601387  0.26881377    -0.13200
C1310       C  0.59282159  0.87311775  0.26937642    -0.13200
C1311       C  0.59515316  0.90347900  0.25068232     0.08900
C1312       C  0.62505614  0.90659842  0.23162843    -0.13200
H1313       H  0.67499574  0.88271002  0.21626199     0.12900
H1314       H  0.61713424  0.82280742  0.28341449     0.12900
H1315       H  0.57000853  0.87039431  0.28433047     0.12900
H1316       H  0.62723172  0.92987319  0.21703195     0.12900
C1317       C  0.87854878  0.90260475  0.22809969    -0.13200
C1318       C  0.90526167  0.90315448  0.25002261     0.08900
C1319       C  0.90468007  0.87641484  0.27200234    -0.13200
C1320       C  0.87764563  0.84930499  0.27201979    -0.13200
C1321       C  0.85074476  0.84862562  0.25006069     0.08900
C1322       C  0.85146914  0.87559057  0.22811873    -0.13200
H1323       H  0.87881305  0.92304330  0.21094182     0.12900
H1324       H  0.92513022  0.87664257  0.28912223     0.12900
H1325       H  0.87769777  0.82902164  0.28928567     0.12900
H1326       H  0.83124711  0.87569032  0.21083992     0.12900
C1327       C  0.90569868  0.62204948  0.26900929    -0.13200
C1328       C  0.90484193  0.59353346  0.24850548     0.08900
C1329       C  0.87641223  0.59221643  0.22795194    -0.13200
C1330       C  0.84910663  0.61908707  0.22795076    -0.13200
C1331       C  0.84989576  0.64776865  0.24848427     0.08900
C1332       C  0.87856311  0.64898726  0.26895287    -0.13200
H1333       H  0.92737719  0.62333680  0.28510935     0.12900
H1334       H  0.87543394  0.57037209  0.21194344     0.12900
H1335       H  0.82746655  0.61743857  0.21185156     0.12900
H1336       H  0.87995554  0.67065563  0.28507815     0.12900
C1337       C  0.59429373  0.62184020  0.27299822    -0.13200
C1338       C  0.59493730  0.59311113  0.25266240     0.08900
C1339       C  0.62297766  0.59171123  0.23180838    -0.13200
C1340       C  0.64995804  0.61884768  0.23112530    -0.13200
C1341       C  0.64936333  0.64787825  0.25133618     0.08900
C1342       C  0.62125546  0.64903109  0.27233830    -0.13200
H1343       H  0.57281521  0.62322810  0.28926635     0.12900
H1344       H  0.62371473  0.56975259  0.21589060     0.12900
H1345       H  0.67116119  0.61717493  0.21466230     0.12900
H1346       H  0.62006681  0.67093564  0.28827288     0.12900
C1347       C  0.59021445  0.87478268  0.48384142    -0.13200
C1348       C  0.59337949  0.90452252  0.50312736     0.08900
C1349       C  0.62620979  0.90783746  0.01912331    -0.13200
C1350       C  0.65333489  0.88086265  0.01894585    -0.13200
C1351       C  0.64815884  0.85018635  0.50119480     0.08900
C1352       C  0.61730475  0.84774838  0.48294948    -0.13200
H1353       H  0.56683540  0.87265299  0.46939502     0.12900
H1354       H  0.62957351  0.93169705  0.03295973     0.12900
H1355       H  0.67724739  0.88463545  0.03258984     0.12900
H1356       H  0.61416066  0.82507296  0.46789089     0.12900
C1357       C  0.87348038  0.91014681  0.52061205    -0.13200
C1358       C  0.90393758  0.90756910  0.50207779     0.08900
C1359       C  0.90763687  0.87838389  0.98034560    -0.13200
C1360       C  0.87928406  0.85126521  0.48175491    -0.13200
C1361       C  0.84891540  0.85341829  0.50054199     0.08900
C1362       C  0.84616274  0.88331715  0.51985131    -0.13200
H1363       H  0.87105752  0.93279898  0.53579436     0.12900
H1364       H  0.93051230  0.87658795  0.96536277     0.12900
H1365       H  0.88215213  0.82871930  0.46654132     0.12900
H1366       H  0.82306662  0.88585496  0.53453580     0.12900
C1367       C  0.90763935  0.62565138  0.47933480    -0.13200
C1368       C  0.90644110  0.59732025  0.50002028     0.08900
C1369       C  0.88210354  0.59873770  0.02169012    -0.13200
C1370       C  0.85018931  0.62275775  0.51962372    -0.13200
C1371       C  0.85140485  0.65148380  0.49914779     0.08900
C1372       C  0.88036746  0.65256435  0.47891229    -0.13200
H1373       H  0.92969427  0.62686124  0.46355676     0.12900
H1374       H  0.88277738  0.57890661  0.03928812     0.12900
H1375       H  0.83492984  0.62592328  0.03886787     0.12900
H1376       H  0.88196743  0.67417895  0.46275398     0.12900
C1377       C  0.62571757  0.59371980  0.52016309    -0.13200
C1378       C  0.59642992  0.59494198  0.50042793     0.08900
C1379       C  0.59726378  0.62291383  0.97939303    -0.13200
C1380       C  0.62440157  0.64983839  0.97923887    -0.13200
C1381       C  0.65133129  0.64914255  0.49874242     0.08900
C1382       C  0.65297836  0.62053703  0.51930951    -0.13200
H1383       H  0.62723426  0.57215947  0.53638728     0.12900
H1384       H  0.57502695  0.62457568  0.96380729     0.12900
H1385       H  0.62247398  0.67186624  0.96346111     0.12900
H1386       H  0.67509659  0.61909049  0.53500276     0.12900
N1387       N  0.55611219  0.50044365  0.50440556    -0.36500
N1388       N  0.00106902  0.55750888  0.50149876    -0.57000
N1389       N  0.94430665  0.50214794  0.50351703    -0.36500
N1390       N  0.99925641  0.94506908  0.50353289    -0.57000
C1391       C  0.57659909  0.52977655  0.49667559     0.27100
C1392       C  0.57556856  0.97009561  0.49747294     0.27100
C1393       C  0.92515789  0.53204972  0.49507474     0.27100
C1394       C  0.92413931  0.97241838  0.49622371     0.27100
C1395       C  0.53088558  0.57817994  0.50712373     0.35700
C1396       C  0.97172706  0.57909049  0.50661063     0.35700
C1397       C  0.52844802  0.92379588  0.50982094     0.35700
C1398       C  0.96928859  0.92479172  0.50959567     0.35700
C1399       C  0.60946254  0.51799526  0.48476911    -0.21800
C1400       C  0.60877161  0.98027144  0.48518922    -0.21800
C1401       C  0.89255576  0.52126661  0.48216910    -0.21800
C1402       C  0.89192621  0.98352299  0.48286792    -0.21800
C1403       C  0.52048486  0.61302243  0.51599684    -0.22800
C1404       C  0.98288821  0.61359120  0.51569285    -0.22800
C1405       C  0.51703075  0.88992651  0.52015249    -0.22800
C1406       C  0.97943608  0.89056772  0.52001472    -0.22800
C1407       C  0.56716700  0.56680071  0.50175198    -0.18200
C1408       C  0.56500475  0.93364391  0.50377447    -0.18200
C1409       C  0.93318782  0.93577818  0.50308290    -0.18200
C1410       C  0.93529337  0.56872332  0.50071161    -0.18200
H1411       H  0.63170174  0.53481674  0.47672143     0.14700
H1412       H  0.63041269  0.96240356  0.47754289     0.14700
H1413       H  0.87129535  0.53878474  0.47341236     0.14700
H1414       H  0.87009804  0.96625875  0.47470653     0.14700
H1415       H  0.53812165  0.63580028  0.52165561     0.13000
H1416       H  0.96578205  0.63688722  0.52104641     0.13000
H1417       H  0.53397938  0.86697627  0.52664495     0.13000
H1418       H  0.96164610  0.86819026  0.52634110     0.13000
H1419       H  0.53222508  0.50113841  0.51675613     0.26300
H1420       H  0.96752852  0.50216316  0.51667577     0.26300
N1421       N  0.94214727  0.49914596  0.74772138    -0.36500
N1422       N  0.49830995  0.94303283  0.74962423    -0.57000
N1423       N  0.55380517  0.49947111  0.75078376    -0.36500
N1424       N  0.49779036  0.55568675  0.75196903    -0.57000
C1425       C  0.92197065  0.96907991  0.75397180     0.27100
C1426       C  0.92160408  0.52876911  0.75451582     0.27100
C1427       C  0.57374493  0.96948627  0.75773972     0.27100
C1428       C  0.57350547  0.52912236  0.75890806     0.27100
C1429       C  0.96901216  0.92222071  0.74275357     0.35700
C1430       C  0.52814154  0.92245925  0.74379692     0.35700
C1431       C  0.96843644  0.57654834  0.74523560     0.35700
C1432       C  0.52757881  0.57676630  0.74705701     0.35700
C1433       C  0.88817405  0.97969007  0.76491180    -0.21800
C1434       C  0.88792289  0.51744828  0.76522926    -0.21800
C1435       C  0.60640879  0.98016066  0.77063474    -0.21800
C1436       C  0.60627098  0.51791401  0.77132671    -0.21800
C1437       C  0.98020007  0.88828480  0.73242984    -0.22800
C1438       C  0.51780291  0.88846982  0.73300691    -0.22800
C1439       C  0.97959212  0.61104466  0.73609953    -0.22800
C1440       C  0.51713799  0.61119067  0.73728973    -0.22800
C1441       C  0.93245150  0.93252873  0.74808076    -0.18200
C1442       C  0.93173408  0.56559332  0.74935428    -0.18200
C1443       C  0.56387307  0.56586480  0.75302129    -0.18200
C1444       C  0.56428109  0.93304112  0.75054745    -0.18200
H1445       H  0.86584516  0.96207617  0.77162286     0.14700
H1446       H  0.86539308  0.53459931  0.77226549     0.14700
H1447       H  0.62830746  0.96259530  0.77825977     0.14700
H1448       H  0.62804834  0.53517048  0.77959186     0.14700
H1449       H  0.96306749  0.86564431  0.72556120     0.13000
H1450       H  0.53545176  0.86597373  0.72669177     0.13000
H1451       H  0.96247451  0.63380451  0.72946718     0.13000
H1452       H  0.53470262  0.63406503  0.73174162     0.13000
H1453       H  0.96667824  0.49951320  0.73616666     0.26300
H1454       H  0.53046428  0.49982514  0.73774201     0.26300
Zn1455     Zn  0.79518157  0.75155556  0.97412974     1.49700
Zn1456     Zn  0.74940210  0.79477380  0.52428863     1.49400
Zn1457     Zn  0.70767343  0.75034465  0.97521048     1.51300
Zn1458     Zn  0.75054181  0.70730957  0.52374864     1.49500
O1459       O  0.75184148  0.75088587  0.99933502    -1.84000
O1460       O  0.82570301  0.79674145  0.98154315    -0.74600
O1461       O  0.70460104  0.82499487  0.51710344    -0.74400
O1462       O  0.72003837  0.75118696  0.93242670    -0.74000
O1463       O  0.79315357  0.82697595  0.51720259    -0.74600
O1464       O  0.78098235  0.75161178  0.93168999    -0.74200
O1465       O  0.67555159  0.79388806  0.98368278    -0.74800
O1466       O  0.70678093  0.67560381  0.51577485    -0.74200
O1467       O  0.74900423  0.78119381  0.56670710    -0.75000
O1468       O  0.67801172  0.70495348  0.98256401    -0.74400
O1469       O  0.74956867  0.72014699  0.56643262    -0.74800
O1470       O  0.79540846  0.67685755  0.51621411    -0.74700
O1471       O  0.82695479  0.70707686  0.98107159    -0.74500
C1472       C  0.82231778  0.82394588  0.99879713     0.77300
C1473       C  0.67867759  0.82124879  0.00077116     0.77800
C1474       C  0.75025508  0.75144805  0.91865829     0.76700
C1475       C  0.68172382  0.67748762  0.99945611     0.77100
C1476       C  0.74894340  0.75058492  0.57995510     0.78200
C1477       C  0.82457519  0.68010207  0.99864685     0.77300
Zn1478     Zn  0.70480704  0.74945656  0.77417578     1.49700
Zn1479     Zn  0.74825312  0.79348152  0.72484703     1.49400
Zn1480     Zn  0.79211575  0.74907396  0.77360090     1.49100
Zn1481     Zn  0.74756110  0.70563291  0.72427696     1.49500
O1482       O  0.74818443  0.74937740  0.74918174    -1.84000
O1483       O  0.67342765  0.79377811  0.76657152    -0.74600
O1484       O  0.79315259  0.82400990  0.73213383    -0.74400
O1485       O  0.77943018  0.74932542  0.81631207    -0.74000
O1486       O  0.70402869  0.82489985  0.73282819    -0.74600
O1487       O  0.71851181  0.75033101  0.81667012    -0.74200
O1488       O  0.82375304  0.79321570  0.76604242    -0.74800
O1489       O  0.79250780  0.67459471  0.73078883    -0.74200
O1490       O  0.74789379  0.78060008  0.68219550    -0.75000
O1491       O  0.82251159  0.70438698  0.76562281    -0.74400
O1492       O  0.74667895  0.71952799  0.68183270    -0.74800
O1493       O  0.70330537  0.67405593  0.73249876    -0.74700
O1494       O  0.67413705  0.70443955  0.76745954    -0.74500
C1495       C  0.67664232  0.82145514  0.74981388     0.77300
C1496       C  0.82066309  0.82058320  0.74897045     0.77800
C1497       C  0.74909573  0.75008546  0.82989342     0.76700
C1498       C  0.81964024  0.67744501  0.74809838     0.77100
C1499       C  0.74721515  0.75019040  0.66863256     0.78200
C1500       C  0.67671802  0.67703891  0.75034942     0.77300
C1501       C  0.74968781  0.75128520  0.88740859    -0.13100
C1502       C  0.74937918  0.75077210  0.86113857    -0.14700
C1503       C  0.74804809  0.75044124  0.61116437    -0.13100
C1504       C  0.74739812  0.75043341  0.63741396    -0.14700
C1505       C  0.64955606  0.87980727  0.73049836    -0.13200
C1506       C  0.64800286  0.85017812  0.75013253     0.08900
C1507       C  0.61881218  0.84827609  0.77011293    -0.13200
C1508       C  0.59175061  0.87533772  0.77038119    -0.13200
C1509       C  0.59333851  0.90467741  0.75064589     0.08900
C1510       C  0.62243112  0.90681951  0.73076964    -0.13200
H1511       H  0.67163315  0.88205917  0.71482612     0.12900
H1512       H  0.61687073  0.82590136  0.78557869     0.12900
H1513       H  0.56948743  0.87341807  0.78592955     0.12900
H1514       H  0.62394054  0.92930204  0.71535675     0.12900
C1515       C  0.87646301  0.90360829  0.72694160    -0.13200
C1516       C  0.90397585  0.90364128  0.74822966     0.08900
C1517       C  0.90434079  0.87621619  0.76967848    -0.13200
C1518       C  0.87735799  0.84906130  0.76988969    -0.13200
C1519       C  0.84953791  0.84901121  0.74866174     0.08900
C1520       C  0.84944263  0.87653024  0.72714524    -0.13200
H1521       H  0.87599420  0.92455648  0.71018042     0.12900
H1522       H  0.92543621  0.87600683  0.78629545     0.12900
H1523       H  0.87812960  0.82830407  0.78678421     0.12900
H1524       H  0.82852647  0.87711555  0.71040674     0.12900
C1525       C  0.90350904  0.62272910  0.76942969    -0.13200
C1526       C  0.90275202  0.59407805  0.74904616     0.08900
C1527       C  0.87462810  0.59281873  0.72822324    -0.13200
C1528       C  0.84759864  0.61996212  0.72776912    -0.13200
C1529       C  0.84834622  0.64882358  0.74814014     0.08900
C1530       C  0.87666699  0.64993754  0.76891513    -0.13200
H1531       H  0.92497374  0.62399817  0.78571140     0.12900
H1532       H  0.87375779  0.57089451  0.71227972     0.12900
H1533       H  0.82619703  0.61837195  0.71146476     0.12900
H1534       H  0.87800393  0.67172660  0.78494022     0.12900
C1535       C  0.59332344  0.62232221  0.77344565    -0.13200
C1536       C  0.59320958  0.59396649  0.75279947     0.08900
C1537       C  0.62084351  0.59257890  0.73158279    -0.13200
C1538       C  0.64811467  0.61945289  0.73081621    -0.13200
C1539       C  0.64818330  0.64818797  0.75130330     0.08900
C1540       C  0.62055755  0.64921960  0.77270944    -0.13200
H1541       H  0.57223376  0.62364029  0.79003508     0.12900
H1542       H  0.62103225  0.57084428  0.71546031     0.12900
H1543       H  0.66895073  0.61787210  0.71405047     0.12900
H1544       H  0.61992704  0.67084994  0.78889710     0.12900
C1545       C  0.59121612  0.87294117  0.98384778    -0.13200
C1546       C  0.59500753  0.90417899  0.00150528     0.08900
C1547       C  0.62398941  0.90690561  0.52147674    -0.13200
C1548       C  0.65118406  0.88006779  0.52047364    -0.13200
C1549       C  0.64963646  0.84953087  0.00128702     0.08900
C1550       C  0.61816240  0.84575203  0.98386618    -0.13200
H1551       H  0.56741325  0.86970104  0.96998315     0.12900
H1552       H  0.62684139  0.92967824  0.53649616     0.12900
H1553       H  0.67458590  0.88277036  0.53482262     0.12900
H1554       H  0.61444899  0.82191971  0.97007194     0.12900
C1555       C  0.87539580  0.90947331  0.01935600    -0.13200
C1556       C  0.90538842  0.90744211  0.00032952     0.08900
C1557       C  0.90648646  0.87813709  0.48248750    -0.13200
C1558       C  0.88050283  0.85140165  0.97964993    -0.13200
C1559       C  0.85056688  0.85307046  0.99891106     0.08900
C1560       C  0.84818187  0.88256680  0.01863653    -0.13200
H1561       H  0.87325138  0.93177109  0.03489105     0.12900
H1562       H  0.92966416  0.87595249  0.46783765     0.12900
H1563       H  0.88308803  0.82915581  0.96412628     0.12900
H1564       H  0.82545870  0.88471307  0.03372189     0.12900
C1565       C  0.90722168  0.62340272  0.97686762    -0.13200
C1566       C  0.90844464  0.59756595  0.99950288     0.08900
C1567       C  0.87747844  0.59595897  0.52005142    -0.13200
C1568       C  0.85482686  0.62554326  0.02134897    -0.13200
C1569       C  0.85346596  0.65166608  0.99878003     0.08900
C1570       C  0.87993454  0.65029972  0.97650094    -0.13200
H1571       H  0.92730314  0.62258362  0.95948374     0.12900
H1572       H  0.87615839  0.57419253  0.53611381     0.12900
H1573       H  0.82826833  0.62108127  0.53547995     0.12900
H1574       H  0.87945165  0.66987600  0.95873255     0.12900
C1575       C  0.62779790  0.59229540  0.01950033    -0.13200
C1576       C  0.59855538  0.59421008  0.99971657     0.08900
C1577       C  0.59499229  0.62301524  0.47952661    -0.13200
C1578       C  0.62215638  0.64996363  0.47872538    -0.13200
C1579       C  0.65352320  0.64837894  0.99927994     0.08900
C1580       C  0.65511492  0.61913636  0.01927377    -0.13200
H1581       H  0.62920755  0.57021726  0.03528475     0.12900
H1582       H  0.57268810  0.62412137  0.46397025     0.12900
H1583       H  0.62020724  0.67150237  0.46252616     0.12900
H1584       H  0.67722208  0.61719621  0.03494516     0.12900
loop_ 
_geom_bond_atom_site_label_1 
_geom_bond_atom_site_label_2 
_geom_bond_distance 
_geom_bond_site_symmetry_2 
_ccdc_geom_bond_type 
N1           H33   1.041   1_565  S
N1            C5   1.352   1_564  A
N1          C402   1.352   1_554  A
N2           C10   1.350       .  A
N2          C801   1.350       .  A
N3           H34   1.041       .  S
N3            C7   1.351   1_554  A
N3          C404   1.352   1_544  A
N4           C12   1.350       .  A
N4          C803   1.350       .  A
C5           C13   1.387       .  A
C5           C21   1.412   1_556  A
C6          N397   1.352   1_556  A
C6           C22   1.413   1_556  A
C6           C14   1.387       .  A
C7           C15   1.387       .  A
C7           C24   1.411       .  A
C8          N399   1.352   1_556  A
C8           C23   1.412   1_556  A
C8           C16   1.387       .  A
C9          N794   1.350       .  A
C9           C21   1.411       .  A
C9           C17   1.387       .  A
C10          C24   1.409   1_554  A
C10          C18   1.386       .  A
C11         N796   1.350       .  A
C11          C19   1.386       .  A
C11          C22   1.411       .  A
C12          C20   1.386       .  A
C12          C23   1.410       .  A
C13         C410   1.376   1_545  A
C13          H25   1.082       .  S
C14         C409   1.376       .  A
C14          H26   1.082       .  S
C15         C412   1.375   1_545  A
C15          H27   1.082       .  S
C16         C411   1.375       .  A
C16          H28   1.082       .  S
C17         C810   1.373   1_455  A
C17          H29   1.082       .  S
C18         C809   1.373       .  A
C18          H30   1.082       .  S
C19         C812   1.373   1_455  A
C19          H31   1.082       .  S
C20         C811   1.373       .  A
C20          H32   1.082       .  S
C21         C388   1.483   1_554  S
C22         C358   1.486       .  S
C23         C368   1.483       .  S
C24         C378   1.480       .  S
N35          H67   1.040       .  S
N35          C40   1.351   1_565  A
N35         C435   1.352       .  A
N36          C44   1.350       .  A
N36         C835   1.349   1_455  A
N37          H68   1.040       .  S
N37          C42   1.351   1_565  A
N37         C437   1.351       .  A
N38          C46   1.350   1_655  A
N38         C837   1.350       .  A
C39         N431   1.352       .  A
C39          C47   1.387       .  A
C39          C55   1.412       .  A
C40          C56   1.412       .  A
C40          C48   1.387       .  A
C41         N433   1.351       .  A
C41          C49   1.387       .  A
C41          C58   1.412       .  A
C42          C57   1.412       .  A
C42          C50   1.387       .  A
C43         N828   1.349       .  A
C43          C55   1.409       .  A
C43          C51   1.385       .  A
C44          C58   1.411       .  A
C44          C52   1.387       .  A
C45         N830   1.350       .  A
C45          C53   1.386       .  A
C45          C56   1.411       .  A
C46          C54   1.386       .  A
C46          C57   1.410       .  A
C47         C444   1.376       .  A
C47          H59   1.082       .  S
C48         C443   1.376   1_545  A
C48          H60   1.082       .  S
C49         C446   1.376       .  A
C49          H61   1.082       .  S
C50         C445   1.376   1_545  A
C50          H62   1.082       .  S
C51         C844   1.372       .  A
C51          H63   1.082       .  S
C52         C843   1.372   1_455  A
C52          H64   1.082       .  S
C53         C846   1.372       .  A
C53          H65   1.082       .  S
C54         C845   1.372   1_455  A
C54          H66   1.082       .  S
C55         C130   1.480       .  S
C56         C140   1.483       .  S
C57         C150   1.482       .  S
C58         C123   1.483       .  S
Zn69         O73   1.957       .  S
Zn69         O74   2.014       .  S
Zn69         O78   2.010       .  S
Zn69         O85   2.018       .  S
Zn70        O271   1.956   1_554  S
Zn70         O75   2.008       .  S
Zn70         O77   2.009       .  S
Zn70         O81   2.014       .  S
Zn71         O73   1.960       .  S
Zn71         O76   2.011       .  S
Zn71         O79   2.017       .  S
Zn71         O82   2.014       .  S
Zn72        O271   1.956   1_554  S
Zn72         O80   2.012       .  S
Zn72         O83   2.009       .  S
Zn72         O84   2.005       .  S
O73        Zn268   1.955       .  S
O73        Zn270   1.954       .  S
O74          C86   1.274       .  A
O75         C285   1.273       .  A
O76          C88   1.271       .  A
O77         C284   1.273   1_554  A
O78          C88   1.271       .  A
O79          C87   1.274       .  A
O80         C287   1.273   1_554  A
O81          C90   1.271       .  A
O82          C89   1.273       .  A
O83          C90   1.271       .  A
O84         C289   1.273   1_554  A
O85          C91   1.274       .  A
C86         C173   1.480       .  S
C86         O275   1.273       .  A
C87         C163   1.478       .  S
C87         O273   1.272       .  A
C88         C115   1.431       .  S
C89         C193   1.479       .  S
C89         O278   1.273       .  A
C90         C117   1.432       .  S
C91         C183   1.480       .  S
C91         O282   1.273       .  A
Zn92         O96   1.955       .  S
Zn92         O97   2.004       .  S
Zn92        O101   2.009       .  S
Zn92        O108   2.010       .  S
Zn93         O96   1.957       .  S
Zn93         O98   2.008       .  S
Zn93        O100   2.012       .  S
Zn93        O104   2.009       .  S
Zn94         O96   1.956       .  S
Zn94         O99   2.011       .  S
Zn94        O102   2.011       .  S
Zn94        O105   2.006       .  S
Zn95         O96   1.959       .  S
Zn95        O103   2.016       .  S
Zn95        O106   2.016       .  S
Zn95        O107   2.019       .  S
O97         C109   1.273       .  A
O98         C110   1.273       .  A
O99         C111   1.271       .  A
O100        C109   1.273       .  A
O101        C111   1.270       .  A
O102        C110   1.273       .  A
O103        C112   1.274       .  A
O104        C113   1.271       .  A
O105        C112   1.273       .  A
O106        C113   1.272       .  A
O107        C114   1.274       .  A
O108        C114   1.273       .  A
C109        C120   1.478       .  S
C110        C133   1.478       .  S
C111        C116   1.431       .  S
C112        C143   1.479       .  S
C113        C118   1.432       .  S
C114        C153   1.481       .  S
C115        C116   1.204       .  T
C117        C118   1.204       .  T
C119        C120   1.406       .  A
C119        C124   1.397       .  A
C119        H125   1.083       .  S
C120        C121   1.406       .  A
C121        C122   1.395       .  A
C121        H126   1.083       .  S
C122        C123   1.402       .  A
C122        H127   1.083       .  S
C123        C124   1.403       .  A
C124        H128   1.083       .  S
C129        C130   1.401       .  A
C129        C134   1.395       .  A
C129        H135   1.083       .  S
C130        C131   1.402       .  A
C131        C132   1.397       .  A
C131        H136   1.083       .  S
C132        C133   1.407       .  A
C132        H137   1.083       .  S
C133        C134   1.406       .  A
C134        H138   1.083       .  S
C139        C140   1.402       .  A
C139        C144   1.395       .  A
C139        H145   1.083       .  S
C140        C141   1.403       .  A
C141        C142   1.398       .  A
C141        H146   1.083       .  S
C142        C143   1.407       .  A
C142        H147   1.083       .  S
C143        C144   1.406       .  A
C144        H148   1.083       .  S
C149        C150   1.402       .  A
C149        C154   1.397       .  A
C149        H155   1.083       .  S
C150        C151   1.402       .  A
C151        C152   1.396       .  A
C151        H156   1.083       .  S
C152        C153   1.406       .  A
C152        H157   1.083       .  S
C153        C154   1.408       .  A
C154        H158   1.083       .  S
C159        C160   1.403       .  A
C159        C164   1.397       .  A
C159        H165   1.083       .  S
C160        C359   1.402       .  A
C160        C220   1.484       .  S
C161        C162   1.396       .  A
C161        C358   1.403       .  A
C161        H166   1.083       .  S
C162        C361   1.406       .  A
C162        H167   1.083       .  S
C163        C164   1.406       .  A
C163        C360   1.407       .  A
C164        H168   1.083       .  S
C169        C170   1.403       .  A
C169        C174   1.397       .  A
C169        H175   1.083       .  S
C170        C369   1.402       .  A
C170        C221   1.483       .  S
C171        C368   1.403   1_556  A
C171        C370   1.396       .  A
C171        H176   1.083       .  S
C172        C173   1.406       .  A
C172        C369   1.395       .  A
C172        H177   1.083       .  S
C173        C174   1.407       .  A
C174        H178   1.083       .  S
C179        C180   1.402       .  A
C179        C184   1.398       .  A
C179        H185   1.083       .  S
C180        C379   1.401       .  A
C180        C222   1.482       .  S
C181        C378   1.400   1_554  A
C181        C380   1.395       .  A
C181        H186   1.083       .  S
C182        C183   1.407       .  A
C182        C379   1.395       .  A
C182        H385   1.083       .  S
C183        C184   1.407       .  A
C184        H188   1.083       .  S
H187        C380   1.083       .  S
C189        C190   1.401       .  A
C189        C194   1.396       .  A
C189        H195   1.083       .  S
C190        C389   1.403       .  A
C190        C219   1.482       .  S
C191        C192   1.395       .  A
C191        C388   1.402       .  A
C191        H196   1.083       .  S
C192        C391   1.406       .  A
C192        H197   1.083       .  S
C193        C194   1.407       .  A
C193        C390   1.406       .  A
C194        H198   1.083       .  S
N199        H231   1.040       .  S
N199        C600   1.352   1_545  A
N199        C203   1.352       .  A
N200        C999   1.349       .  A
N200        C208   1.350       .  A
N201        H232   1.041       .  S
N201        C602   1.352   1_545  A
N201        C205   1.351       .  A
N202       C1001   1.349       .  A
N202        C210   1.349       .  A
C203        C211   1.386       .  A
C203        C219   1.412       .  A
C204        N595   1.352       .  A
C204        C220   1.413       .  A
C204        C212   1.387       .  A
C205        C213   1.386       .  A
C205        C222   1.411       .  A
C206        N597   1.352       .  A
C206        C221   1.411       .  A
C206        C214   1.386       .  A
C207        N992   1.349       .  A
C207        C219   1.410       .  A
C207        C215   1.386       .  A
C208        C222   1.409       .  A
C208        C216   1.386       .  A
C209        N994   1.349   1_455  A
C209        C217   1.386       .  A
C209        C220   1.410       .  A
C210        C218   1.386       .  A
C210        C221   1.410       .  A
C211        C608   1.375   1_545  A
C211        H223   1.082       .  S
C212        C607   1.375       .  A
C212        H224   1.082       .  S
C213        C610   1.375   1_545  A
C213        H225   1.082       .  S
C214        C609   1.375       .  A
C214        H226   1.082       .  S
C215       C1008   1.373   1_455  A
C215        H227   1.082       .  S
C216       C1007   1.373       .  A
C216        H228   1.082       .  S
C217       C1010   1.373   1_455  A
C217        H229   1.082       .  S
C218       C1009   1.373       .  A
C218        H230   1.082       .  S
N233        H265   1.041       .  S
N233        C238   1.351   1_565  A
N233        C633   1.352       .  A
N234       C1033   1.349       .  A
N234        C242   1.349   1_655  A
N235        H266   1.041       .  S
N235        C240   1.351   1_565  A
N235        C635   1.351       .  A
N236       C1035   1.350       .  A
N236        C244   1.351   1_655  A
C237        N629   1.352       .  A
C237        C245   1.387       .  A
C237        C253   1.412       .  A
C238        C254   1.412       .  A
C238        C246   1.387       .  A
C239        N631   1.351       .  A
C239        C247   1.387       .  A
C239        C256   1.412       .  A
C240        C255   1.411       .  A
C240        C248   1.387       .  A
C241       N1026   1.349       .  A
C241        C253   1.408       .  A
C241        C249   1.386       .  A
C242        C256   1.409       .  A
C242        C250   1.386       .  A
C243       N1028   1.350       .  A
C243        C251   1.386       .  A
C243        C254   1.411       .  A
C244        C252   1.386       .  A
C244        C255   1.410       .  A
C245        C642   1.376       .  A
C245        H257   1.082       .  S
C246        C641   1.376   1_545  A
C246        H258   1.082       .  S
C247        C644   1.376       .  A
C247        H259   1.082       .  S
C248        C643   1.376   1_545  A
C248        H260   1.082       .  S
C249       C1042   1.373       .  A
C249        H261   1.082       .  S
C250       C1041   1.373   1_455  A
C250        H262   1.082       .  S
C251       C1044   1.373       .  A
C251        H263   1.082       .  S
C252       C1043   1.373   1_455  A
C252        H264   1.082       .  S
C253        C328   1.480       .  S
C254        C338   1.483       .  S
C255        C348   1.482       .  S
C256        C321   1.481       .  S
Zn267       O271   1.959       .  S
Zn267       O272   2.017       .  S
Zn267       O276   2.013       .  S
Zn267       O283   2.019       .  S
Zn268       O273   2.000       .  S
Zn268       O275   2.009       .  S
Zn268       O279   2.006       .  S
Zn269       O271   1.956       .  S
Zn269       O274   2.012       .  S
Zn269       O277   2.011       .  S
Zn269       O280   2.006       .  S
Zn270       O278   2.006       .  S
Zn270       O281   2.012       .  S
Zn270       O282   2.009       .  S
O272        C284   1.274       .  A
O274        C286   1.271       .  A
O276        C286   1.271       .  A
O277        C285   1.273   1_556  A
O279        C288   1.270       .  A
O280        C287   1.273       .  A
O281        C288   1.271       .  A
O283        C289   1.274       .  A
C284        C371   1.480       .  S
C285        C361   1.479       .  S
C286        C313   1.432       .  S
C287        C391   1.479       .  S
C288        C315   1.431       .  S
C289        C381   1.479       .  S
Zn290       O294   1.955       .  S
Zn290       O295   2.011       .  S
Zn290       O299   2.011       .  S
Zn290       O306   2.010       .  S
Zn291       O294   1.956       .  S
Zn291       O296   2.010       .  S
Zn291       O298   2.013       .  S
Zn291       O302   2.010       .  S
Zn292       O294   1.956       .  S
Zn292       O297   2.012       .  S
Zn292       O300   2.011       .  S
Zn292       O303   2.004       .  S
Zn293       O294   1.961       .  S
Zn293       O301   2.016       .  S
Zn293       O304   2.010       .  S
Zn293       O305   2.019       .  S
O295        C307   1.273       .  A
O296        C308   1.273       .  A
O297        C309   1.271       .  A
O298        C307   1.273       .  A
O299        C309   1.271       .  A
O300        C308   1.273       .  A
O301        C310   1.274       .  A
O302        C311   1.271       .  A
O303        C310   1.273       .  A
O304        C311   1.271       .  A
O305        C312   1.274       .  A
O306        C312   1.273       .  A
C307        C318   1.480       .  S
C308        C331   1.478       .  S
C309        C314   1.432       .  S
C310        C341   1.479       .  S
C311        C316   1.431       .  S
C312        C351   1.481       .  S
C313        C314   1.204       .  T
C315        C316   1.203       .  T
C317        C318   1.407       .  A
C317        C322   1.397       .  A
C317        H323   1.083       .  S
C318        C319   1.407       .  A
C319        C320   1.396       .  A
C319        H324   1.083       .  S
C320        C321   1.402       .  A
C320        H325   1.083       .  S
C321        C322   1.402       .  A
C322        H326   1.083       .  S
C327        C328   1.400       .  A
C327        C332   1.396       .  A
C327        H333   1.083       .  S
C328        C329   1.402       .  A
C329        C330   1.397       .  A
C329        H334   1.083       .  S
C330        C331   1.407       .  A
C330        H335   1.083       .  S
C331        C332   1.407       .  A
C332        H336   1.083       .  S
C337        C338   1.401       .  A
C337        C342   1.394       .  A
C337        H343   1.083       .  S
C338        C339   1.403       .  A
C339        C340   1.398       .  A
C339        H344   1.083       .  S
C340        C341   1.407       .  A
C340        H345   1.083       .  S
C341        C342   1.406       .  A
C342        H346   1.083       .  S
C347        C348   1.401       .  A
C347        C352   1.397       .  A
C347        H353   1.083       .  S
C348        C349   1.402       .  A
C349        C350   1.397       .  A
C349        H354   1.083       .  S
C350        C351   1.407       .  A
C350        H355   1.083       .  S
C351        C352   1.408       .  A
C352        H356   1.083       .  S
C357        C358   1.404   1_556  A
C357        C362   1.396       .  A
C357        H363   1.083       .  S
C359        C360   1.395       .  A
C359        H364   1.083       .  S
C360        H365   1.083       .  S
C361        C362   1.406   1_554  A
C362        H366   1.083       .  S
C367        C368   1.402       .  A
C367        C372   1.397       .  A
C367        H373   1.083       .  S
C369        H374   1.083       .  S
C370        C371   1.406       .  A
C370        H375   1.083       .  S
C371        C372   1.407   1_556  A
C372        H376   1.083       .  S
C377        C378   1.402       .  A
C377        C382   1.398       .  A
C377        H383   1.083       .  S
C379        H384   1.083       .  S
C380        C381   1.407   1_554  A
C381        C382   1.407       .  A
C382        H386   1.083       .  S
C387        C388   1.403   1_554  A
C387        C392   1.397       .  A
C387        H393   1.083       .  S
C389        C390   1.396       .  A
C389        H394   1.083       .  S
C390        H395   1.083       .  S
C391        C392   1.407   1_556  A
C392        H396   1.083       .  S
N397        H429   1.041       .  S
N397        C401   1.352   1_554  A
N398       C1197   1.350       .  A
N398        C406   1.350       .  A
N399        H430   1.041       .  S
N399        C403   1.351   1_554  A
N400       C1199   1.350       .  A
N400        C408   1.350       .  A
C401        C409   1.387       .  A
C401        C417   1.412   1_556  A
C402        C418   1.413   1_556  A
C402        C410   1.387       .  A
C403        C411   1.387       .  A
C403        C420   1.411       .  A
C404        C419   1.412   1_556  A
C404        C412   1.387       .  A
C405       N1190   1.350       .  A
C405        C417   1.411       .  A
C405        C413   1.387       .  A
C406        C420   1.409   1_554  A
C406        C414   1.386       .  A
C407       N1192   1.350       .  A
C407        C415   1.386       .  A
C407        C418   1.411       .  A
C408        C416   1.386       .  A
C408        C419   1.410       .  A
C409        H421   1.082       .  S
C410        H422   1.082       .  S
C411        H423   1.082       .  S
C412        H424   1.082       .  S
C413       C1206   1.373   1_455  A
C413        H425   1.082       .  S
C414       C1205   1.373       .  A
C414        H426   1.082       .  S
C415       C1208   1.373   1_455  A
C415        H427   1.082       .  S
C416       C1207   1.373       .  A
C416        H428   1.082       .  S
C417        C784   1.483   1_554  S
C418        C754   1.486       .  S
C419        C764   1.483       .  S
C420        C774   1.480       .  S
N431        H463   1.039       .  S
N431        C436   1.351       .  A
N432       C1231   1.349       .  A
N432        C440   1.350   1_655  A
N433        H464   1.040       .  S
N433        C438   1.351       .  A
N434       C1233   1.350       .  A
N434        C442   1.350   1_655  A
C435        C443   1.387       .  A
C435        C451   1.412       .  A
C436        C452   1.412       .  A
C436        C444   1.387       .  A
C437        C445   1.387       .  A
C437        C454   1.412       .  A
C438        C453   1.412       .  A
C438        C446   1.387       .  A
C439       N1224   1.349       .  A
C439        C451   1.409       .  A
C439        C447   1.385       .  A
C440        C454   1.411       .  A
C440        C448   1.387       .  A
C441       N1226   1.350       .  A
C441        C449   1.386       .  A
C441        C452   1.411       .  A
C442        C450   1.386       .  A
C442        C453   1.410       .  A
C443        H455   1.082       .  S
C444        H456   1.082       .  S
C445        H457   1.082       .  S
C446        H458   1.082       .  S
C447       C1240   1.372       .  A
C447        H459   1.082       .  S
C448       C1239   1.372   1_455  A
C448        H460   1.082       .  S
C449       C1242   1.372       .  A
C449        H461   1.082       .  S
C450       C1241   1.372   1_455  A
C450        H462   1.082       .  S
C451        C526   1.480       .  S
C452        C536   1.483       .  S
C453        C546   1.482       .  S
C454        C519   1.483       .  S
Zn465       O469   1.957       .  S
Zn465       O470   2.014       .  S
Zn465       O474   2.010       .  S
Zn465       O481   2.018       .  S
Zn466       O667   1.956   1_554  S
Zn466       O471   2.008       .  S
Zn466       O473   2.009       .  S
Zn466       O477   2.014       .  S
Zn467       O469   1.960       .  S
Zn467       O472   2.011       .  S
Zn467       O475   2.017       .  S
Zn467       O478   2.013       .  S
Zn468       O667   1.956   1_554  S
Zn468       O476   2.012       .  S
Zn468       O479   2.009       .  S
Zn468       O480   2.005       .  S
O469       Zn664   1.955       .  S
O469       Zn666   1.954       .  S
O470        C482   1.274       .  A
O471        C681   1.273       .  A
O472        C484   1.271       .  A
O473        C680   1.273   1_554  A
O474        C484   1.271       .  A
O475        C483   1.274       .  A
O476        C683   1.273   1_554  A
O477        C486   1.271       .  A
O478        C485   1.273       .  A
O479        C486   1.271       .  A
O480        C685   1.273   1_554  A
O481        C487   1.274       .  A
C482        C569   1.480       .  S
C482        O671   1.273       .  A
C483        C559   1.478       .  S
C483        O669   1.272       .  A
C484        C511   1.431       .  S
C485        C589   1.479       .  S
C485        O674   1.273       .  A
C486        C513   1.432       .  S
C487        C579   1.480       .  S
C487        O678   1.273       .  A
Zn488       O492   1.955       .  S
Zn488       O493   2.004       .  S
Zn488       O497   2.009       .  S
Zn488       O504   2.010       .  S
Zn489       O492   1.957       .  S
Zn489       O494   2.008       .  S
Zn489       O496   2.012       .  S
Zn489       O500   2.009       .  S
Zn490       O492   1.956       .  S
Zn490       O495   2.011       .  S
Zn490       O498   2.011       .  S
Zn490       O501   2.006       .  S
Zn491       O492   1.959       .  S
Zn491       O499   2.016       .  S
Zn491       O502   2.016       .  S
Zn491       O503   2.019       .  S
O493        C505   1.273       .  A
O494        C506   1.273       .  A
O495        C507   1.271       .  A
O496        C505   1.273       .  A
O497        C507   1.270       .  A
O498        C506   1.273       .  A
O499        C508   1.274       .  A
O500        C509   1.271       .  A
O501        C508   1.273       .  A
O502        C509   1.272       .  A
O503        C510   1.274       .  A
O504        C510   1.273       .  A
C505        C516   1.478       .  S
C506        C529   1.478       .  S
C507        C512   1.431       .  S
C508        C539   1.479       .  S
C509        C514   1.432       .  S
C510        C549   1.481       .  S
C511        C512   1.204       .  T
C513        C514   1.204       .  T
C515        C516   1.406       .  A
C515        C520   1.397       .  A
C515        H521   1.083       .  S
C516        C517   1.406       .  A
C517        C518   1.395       .  A
C517        H522   1.083       .  S
C518        C519   1.402       .  A
C518        H523   1.083       .  S
C519        C520   1.403       .  A
C520        H524   1.083       .  S
C525        C526   1.401       .  A
C525        C530   1.395       .  A
C525        H531   1.083       .  S
C526        C527   1.402       .  A
C527        C528   1.397       .  A
C527        H532   1.083       .  S
C528        C529   1.407       .  A
C528        H533   1.083       .  S
C529        C530   1.406       .  A
C530        H534   1.083       .  S
C535        C536   1.402       .  A
C535        C540   1.395       .  A
C535        H541   1.083       .  S
C536        C537   1.403       .  A
C537        C538   1.398       .  A
C537        H542   1.083       .  S
C538        C539   1.407       .  A
C538        H543   1.083       .  S
C539        C540   1.406       .  A
C540        H544   1.083       .  S
C545        C546   1.402       .  A
C545        C550   1.397       .  A
C545        H551   1.083       .  S
C546        C547   1.402       .  A
C547        C548   1.396       .  A
C547        H552   1.083       .  S
C548        C549   1.406       .  A
C548        H553   1.083       .  S
C549        C550   1.408       .  A
C550        H554   1.083       .  S
C555        C556   1.403       .  A
C555        C560   1.397       .  A
C555        H561   1.083       .  S
C556        C755   1.402       .  A
C556        C616   1.484       .  S
C557        C754   1.403       .  A
C557        C558   1.396       .  A
C557        H562   1.083       .  S
C558        C757   1.406       .  A
C558        H563   1.083       .  S
C559        C756   1.407       .  A
C559        C560   1.406       .  A
C560        H564   1.083       .  S
C565        C566   1.403       .  A
C565        C570   1.397       .  A
C565        H571   1.083       .  S
C566        C765   1.402       .  A
C566        C617   1.483       .  S
C567        C764   1.403   1_556  A
C567        C766   1.396       .  A
C567        H572   1.083       .  S
C568        C765   1.395       .  A
C568        C569   1.406       .  A
C568        H573   1.083       .  S
C569        C570   1.407       .  A
C570        H574   1.083       .  S
C575        C576   1.402       .  A
C575        C580   1.398       .  A
C575        H581   1.083       .  S
C576        C775   1.401       .  A
C576        C618   1.482       .  S
C577        C774   1.400   1_554  A
C577        C776   1.395       .  A
C577        H582   1.083       .  S
C578        C775   1.395       .  A
C578        C579   1.407       .  A
C578        H781   1.083       .  S
C579        C580   1.407       .  A
C580        H584   1.083       .  S
H583        C776   1.083       .  S
C585        C586   1.401       .  A
C585        C590   1.396       .  A
C585        H591   1.083       .  S
C586        C785   1.403       .  A
C586        C615   1.482       .  S
C587        C784   1.402       .  A
C587        C588   1.395       .  A
C587        H592   1.083       .  S
C588        C787   1.406       .  A
C588        H593   1.083       .  S
C589        C786   1.406       .  A
C589        C590   1.407       .  A
C590        H594   1.083       .  S
N595        H627   1.040       .  S
N595        C599   1.352       .  A
N596       C1395   1.349       .  A
N596        C604   1.350       .  A
N597        H628   1.041       .  S
N597        C601   1.351       .  A
N598       C1397   1.349       .  A
N598        C606   1.349       .  A
C599        C607   1.386       .  A
C599        C615   1.412       .  A
C600        C616   1.413       .  A
C600        C608   1.387       .  A
C601        C609   1.386       .  A
C601        C618   1.411       .  A
C602        C617   1.411       .  A
C602        C610   1.386       .  A
C603       N1388   1.349       .  A
C603        C615   1.410       .  A
C603        C611   1.386       .  A
C604        C618   1.409       .  A
C604        C612   1.386       .  A
C605       N1390   1.349   1_455  A
C605        C613   1.386       .  A
C605        C616   1.410       .  A
C606        C614   1.386       .  A
C606        C617   1.410       .  A
C607        H619   1.082       .  S
C608        H620   1.082       .  S
C609        H621   1.082       .  S
C610        H622   1.082       .  S
C611       C1404   1.373   1_455  A
C611        H623   1.082       .  S
C612       C1403   1.373       .  A
C612        H624   1.082       .  S
C613       C1406   1.373   1_455  A
C613        H625   1.082       .  S
C614       C1405   1.373       .  A
C614        H626   1.082       .  S
N629        H661   1.041       .  S
N629        C634   1.351       .  A
N630       C1429   1.349       .  A
N630        C638   1.349   1_655  A
N631        H662   1.041       .  S
N631        C636   1.351       .  A
N632       C1431   1.350       .  A
N632        C640   1.351   1_655  A
C633        C641   1.387       .  A
C633        C649   1.412       .  A
C634        C650   1.412       .  A
C634        C642   1.387       .  A
C635        C643   1.387       .  A
C635        C652   1.412       .  A
C636        C651   1.411       .  A
C636        C644   1.387       .  A
C637       N1422   1.349       .  A
C637        C649   1.408       .  A
C637        C645   1.386       .  A
C638        C652   1.409       .  A
C638        C646   1.386       .  A
C639       N1424   1.350       .  A
C639        C647   1.386       .  A
C639        C650   1.411       .  A
C640        C648   1.386       .  A
C640        C651   1.410       .  A
C641        H653   1.082       .  S
C642        H654   1.082       .  S
C643        H655   1.082       .  S
C644        H656   1.082       .  S
C645       C1438   1.373       .  A
C645        H657   1.082       .  S
C646       C1437   1.373   1_455  A
C646        H658   1.082       .  S
C647       C1440   1.373       .  A
C647        H659   1.082       .  S
C648       C1439   1.373   1_455  A
C648        H660   1.082       .  S
C649        C724   1.480       .  S
C650        C734   1.483       .  S
C651        C744   1.482       .  S
C652        C717   1.481       .  S
Zn663       O667   1.959       .  S
Zn663       O668   2.017       .  S
Zn663       O672   2.013       .  S
Zn663       O679   2.019       .  S
Zn664       O669   2.000       .  S
Zn664       O671   2.009       .  S
Zn664       O675   2.006       .  S
Zn665       O667   1.956       .  S
Zn665       O670   2.012       .  S
Zn665       O673   2.011       .  S
Zn665       O676   2.006       .  S
Zn666       O674   2.006       .  S
Zn666       O677   2.012       .  S
Zn666       O678   2.009       .  S
O668        C680   1.274       .  A
O670        C682   1.271       .  A
O672        C682   1.271       .  A
O673        C681   1.273   1_556  A
O675        C684   1.270       .  A
O676        C683   1.273       .  A
O677        C684   1.271       .  A
O679        C685   1.274       .  A
C680        C767   1.480       .  S
C681        C757   1.479       .  S
C682        C709   1.432       .  S
C683        C787   1.479       .  S
C684        C711   1.431       .  S
C685        C777   1.479       .  S
Zn686       O690   1.955       .  S
Zn686       O691   2.011       .  S
Zn686       O695   2.011       .  S
Zn686       O702   2.010       .  S
Zn687       O690   1.957       .  S
Zn687       O692   2.009       .  S
Zn687       O694   2.013       .  S
Zn687       O698   2.010       .  S
Zn688       O690   1.956       .  S
Zn688       O693   2.012       .  S
Zn688       O696   2.011       .  S
Zn688       O699   2.005       .  S
Zn689       O690   1.961       .  S
Zn689       O697   2.016       .  S
Zn689       O700   2.010       .  S
Zn689       O701   2.019       .  S
O691        C703   1.273       .  A
O692        C704   1.273       .  A
O693        C705   1.271       .  A
O694        C703   1.273       .  A
O695        C705   1.271       .  A
O696        C704   1.273       .  A
O697        C706   1.274       .  A
O698        C707   1.271       .  A
O699        C706   1.273       .  A
O700        C707   1.271       .  A
O701        C708   1.274       .  A
O702        C708   1.273       .  A
C703        C714   1.480       .  S
C704        C727   1.478       .  S
C705        C710   1.432       .  S
C706        C737   1.479       .  S
C707        C712   1.431       .  S
C708        C747   1.481       .  S
C709        C710   1.204       .  T
C711        C712   1.203       .  T
C713        C714   1.407       .  A
C713        C718   1.397       .  A
C713        H719   1.083       .  S
C714        C715   1.407       .  A
C715        C716   1.396       .  A
C715        H720   1.083       .  S
C716        C717   1.402       .  A
C716        H721   1.083       .  S
C717        C718   1.402       .  A
C718        H722   1.083       .  S
C723        C724   1.401       .  A
C723        C728   1.396       .  A
C723        H729   1.083       .  S
C724        C725   1.402       .  A
C725        C726   1.397       .  A
C725        H730   1.083       .  S
C726        C727   1.407       .  A
C726        H731   1.083       .  S
C727        C728   1.407       .  A
C728        H732   1.083       .  S
C733        C734   1.401       .  A
C733        C738   1.394       .  A
C733        H739   1.083       .  S
C734        C735   1.403       .  A
C735        C736   1.398       .  A
C735        H740   1.083       .  S
C736        C737   1.407       .  A
C736        H741   1.083       .  S
C737        C738   1.406       .  A
C738        H742   1.083       .  S
C743        C744   1.401       .  A
C743        C748   1.397       .  A
C743        H749   1.083       .  S
C744        C745   1.402       .  A
C745        C746   1.397       .  A
C745        H750   1.083       .  S
C746        C747   1.407       .  A
C746        H751   1.083       .  S
C747        C748   1.408       .  A
C748        H752   1.083       .  S
C753        C754   1.404   1_556  A
C753        C758   1.396       .  A
C753        H759   1.083       .  S
C755        C756   1.395       .  A
C755        H760   1.083       .  S
C756        H761   1.083       .  S
C757        C758   1.406   1_554  A
C758        H762   1.083       .  S
C763        C764   1.402       .  A
C763        C768   1.397       .  A
C763        H769   1.083       .  S
C765        H770   1.083       .  S
C766        C767   1.406       .  A
C766        H771   1.083       .  S
C767        C768   1.407   1_556  A
C768        H772   1.083       .  S
C773        C774   1.402       .  A
C773        C778   1.398       .  A
C773        H779   1.083       .  S
C775        H780   1.083       .  S
C776        C777   1.407   1_554  A
C777        C778   1.407       .  A
C778        H782   1.083       .  S
C783        C784   1.403   1_554  A
C783        C788   1.397       .  A
C783        H789   1.083       .  S
C785        C786   1.396       .  A
C785        H790   1.083       .  S
C786        H791   1.083       .  S
C787        C788   1.407   1_556  A
C788        H792   1.083       .  S
N793        H825   1.041   1_565  S
N793       C1194   1.352   1_554  A
N793        C797   1.352   1_564  A
N794        C802   1.350   1_455  A
N795        H826   1.041       .  S
N795       C1196   1.352   1_544  A
N795        C799   1.351   1_554  A
N796        C804   1.350   1_455  A
C797        C805   1.387       .  A
C797        C813   1.412   1_556  A
C798       N1189   1.352   1_556  A
C798        C814   1.413   1_556  A
C798        C806   1.387       .  A
C799        C807   1.387       .  A
C799        C816   1.411       .  A
C800       N1191   1.352   1_556  A
C800        C815   1.412   1_556  A
C800        C808   1.387       .  A
C801        C813   1.411       .  A
C801        C809   1.387       .  A
C802        C816   1.409   1_554  A
C802        C810   1.386       .  A
C803        C811   1.386       .  A
C803        C814   1.411       .  A
C804        C812   1.386       .  A
C804        C815   1.410       .  A
C805       C1202   1.376   1_545  A
C805        H817   1.082       .  S
C806       C1201   1.376       .  A
C806        H818   1.082       .  S
C807       C1204   1.375   1_545  A
C807        H819   1.082       .  S
C808       C1203   1.375       .  A
C808        H820   1.082       .  S
C809        H821   1.082       .  S
C810        H822   1.082       .  S
C811        H823   1.082       .  S
C812        H824   1.082       .  S
C813       C1180   1.483   1_554  S
C814       C1150   1.486       .  S
C815       C1160   1.483       .  S
C816       C1170   1.480       .  S
N827        H859   1.040       .  S
N827        C832   1.351   1_565  A
N827       C1227   1.352       .  A
N828        C836   1.350       .  A
N829        H860   1.040       .  S
N829        C834   1.351   1_565  A
N829       C1229   1.351       .  A
N830        C838   1.350       .  A
C831       N1223   1.352       .  A
C831        C839   1.387       .  A
C831        C847   1.412       .  A
C832        C848   1.412       .  A
C832        C840   1.387       .  A
C833       N1225   1.351       .  A
C833        C841   1.387       .  A
C833        C850   1.412       .  A
C834        C849   1.412       .  A
C834        C842   1.387       .  A
C835        C847   1.409       .  A
C835        C843   1.385       .  A
C836        C850   1.411       .  A
C836        C844   1.387       .  A
C837        C845   1.386       .  A
C837        C848   1.411       .  A
C838        C846   1.386       .  A
C838        C849   1.410       .  A
C839       C1236   1.376       .  A
C839        H851   1.082       .  S
C840       C1235   1.376   1_545  A
C840        H852   1.082       .  S
C841       C1238   1.376       .  A
C841        H853   1.082       .  S
C842       C1237   1.376   1_545  A
C842        H854   1.082       .  S
C843        H855   1.082       .  S
C844        H856   1.082       .  S
C845        H857   1.082       .  S
C846        H858   1.082       .  S
C847        C922   1.480       .  S
C848        C932   1.483       .  S
C849        C942   1.482       .  S
C850        C915   1.483       .  S
Zn861       O865   1.957       .  S
Zn861       O866   2.014       .  S
Zn861       O870   2.010       .  S
Zn861       O877   2.018       .  S
Zn862      O1063   1.956   1_554  S
Zn862       O867   2.008       .  S
Zn862       O869   2.009       .  S
Zn862       O873   2.014       .  S
Zn863       O865   1.960       .  S
Zn863       O868   2.011       .  S
Zn863       O871   2.017       .  S
Zn863       O874   2.014       .  S
Zn864      O1063   1.956   1_554  S
Zn864       O872   2.012       .  S
Zn864       O875   2.009       .  S
Zn864       O876   2.005       .  S
O865      Zn1060   1.955       .  S
O865      Zn1062   1.954       .  S
O866        C878   1.274       .  A
O867       C1077   1.273       .  A
O868        C880   1.271       .  A
O869       C1076   1.273   1_554  A
O870        C880   1.271       .  A
O871        C879   1.274       .  A
O872       C1079   1.273   1_554  A
O873        C882   1.271       .  A
O874        C881   1.273       .  A
O875        C882   1.271       .  A
O876       C1081   1.273   1_554  A
O877        C883   1.274       .  A
C878        C965   1.480       .  S
C878       O1067   1.273       .  A
C879        C955   1.478       .  S
C879       O1065   1.272       .  A
C880        C907   1.431       .  S
C881        C985   1.479       .  S
C881       O1070   1.273       .  A
C882        C909   1.432       .  S
C883        C975   1.480       .  S
C883       O1074   1.273       .  A
Zn884       O888   1.955       .  S
Zn884       O889   2.004       .  S
Zn884       O893   2.009       .  S
Zn884       O900   2.010       .  S
Zn885       O888   1.957       .  S
Zn885       O890   2.008       .  S
Zn885       O892   2.012       .  S
Zn885       O896   2.009       .  S
Zn886       O888   1.956       .  S
Zn886       O891   2.011       .  S
Zn886       O894   2.011       .  S
Zn886       O897   2.006       .  S
Zn887       O888   1.959       .  S
Zn887       O895   2.016       .  S
Zn887       O898   2.016       .  S
Zn887       O899   2.019       .  S
O889        C901   1.273       .  A
O890        C902   1.273       .  A
O891        C903   1.271       .  A
O892        C901   1.273       .  A
O893        C903   1.270       .  A
O894        C902   1.273       .  A
O895        C904   1.274       .  A
O896        C905   1.271       .  A
O897        C904   1.273       .  A
O898        C905   1.272       .  A
O899        C906   1.274       .  A
O900        C906   1.273       .  A
C901        C912   1.478       .  S
C902        C925   1.478       .  S
C903        C908   1.431       .  S
C904        C935   1.479       .  S
C905        C910   1.432       .  S
C906        C945   1.481       .  S
C907        C908   1.204       .  T
C909        C910   1.204       .  T
C911        C912   1.406       .  A
C911        C916   1.397       .  A
C911        H917   1.083       .  S
C912        C913   1.406       .  A
C913        C914   1.395       .  A
C913        H918   1.083       .  S
C914        C915   1.402       .  A
C914        H919   1.083       .  S
C915        C916   1.403       .  A
C916        H920   1.083       .  S
C921        C922   1.401       .  A
C921        C926   1.395       .  A
C921        H927   1.083       .  S
C922        C923   1.402       .  A
C923        C924   1.397       .  A
C923        H928   1.083       .  S
C924        C925   1.407       .  A
C924        H929   1.083       .  S
C925        C926   1.406       .  A
C926        H930   1.083       .  S
C931        C932   1.401       .  A
C931        C936   1.395       .  A
C931        H937   1.083       .  S
C932        C933   1.403       .  A
C933        C934   1.398       .  A
C933        H938   1.083       .  S
C934        C935   1.407       .  A
C934        H939   1.083       .  S
C935        C936   1.406       .  A
C936        H940   1.083       .  S
C941        C942   1.402       .  A
C941        C946   1.397       .  A
C941        H947   1.083       .  S
C942        C943   1.402       .  A
C943        C944   1.396       .  A
C943        H948   1.083       .  S
C944        C945   1.406       .  A
C944        H949   1.083       .  S
C945        C946   1.408       .  A
C946        H950   1.083       .  S
C951        C952   1.403       .  A
C951        C956   1.397       .  A
C951        H957   1.083       .  S
C952       C1151   1.402       .  A
C952       C1012   1.484       .  S
C953       C1150   1.403       .  A
C953        C954   1.396       .  A
C953        H958   1.083       .  S
C954       C1153   1.406       .  A
C954        H959   1.083       .  S
C955       C1152   1.407       .  A
C955        C956   1.406       .  A
C956        H960   1.083       .  S
C961        C962   1.403       .  A
C961        C966   1.397       .  A
C961        H967   1.083       .  S
C962       C1161   1.402       .  A
C962       C1013   1.483       .  S
C963       C1160   1.403   1_556  A
C963       C1162   1.396       .  A
C963        H968   1.083       .  S
C964       C1161   1.395       .  A
C964        C965   1.406       .  A
C964        H969   1.083       .  S
C965        C966   1.407       .  A
C966        H970   1.083       .  S
C971        C972   1.403       .  A
C971        C976   1.398       .  A
C971        H977   1.083       .  S
C972       C1171   1.401       .  A
C972       C1014   1.482       .  S
C973       C1170   1.400   1_554  A
C973       C1172   1.395       .  A
C973        H978   1.083       .  S
C974       C1171   1.395       .  A
C974        C975   1.407       .  A
C974       H1177   1.083       .  S
C975        C976   1.407       .  A
C976        H980   1.083       .  S
H979       C1172   1.083       .  S
C981        C982   1.401       .  A
C981        C986   1.396       .  A
C981        H987   1.083       .  S
C982       C1181   1.403       .  A
C982       C1011   1.482       .  S
C983       C1180   1.402       .  A
C983        C984   1.395       .  A
C983        H988   1.083       .  S
C984       C1183   1.406       .  A
C984        H989   1.083       .  S
C985       C1182   1.406       .  A
C985        C986   1.407       .  A
C986        H990   1.083       .  S
N991       H1023   1.040       .  S
N991       C1392   1.352   1_545  A
N991        C995   1.352       .  A
N992       C1000   1.350   1_455  A
N993       H1024   1.041       .  S
N993       C1394   1.352   1_545  A
N993        C997   1.351       .  A
N994       C1002   1.349       .  A
C995       C1003   1.386       .  A
C995       C1011   1.412       .  A
C996       N1387   1.352       .  A
C996       C1012   1.413       .  A
C996       C1004   1.387       .  A
C997       C1005   1.386       .  A
C997       C1014   1.411       .  A
C998       N1389   1.352       .  A
C998       C1013   1.411       .  A
C998       C1006   1.386       .  A
C999       C1011   1.410       .  A
C999       C1007   1.386       .  A
C1000      C1014   1.409       .  A
C1000      C1008   1.386       .  A
C1001      C1009   1.386       .  A
C1001      C1012   1.410       .  A
C1002      C1010   1.386       .  A
C1002      C1013   1.410       .  A
C1003      C1400   1.375   1_545  A
C1003      H1015   1.082       .  S
C1004      C1399   1.375       .  A
C1004      H1016   1.082       .  S
C1005      C1402   1.375   1_545  A
C1005      H1017   1.082       .  S
C1006      C1401   1.375       .  A
C1006      H1018   1.082       .  S
C1007      H1019   1.082       .  S
C1008      H1020   1.082       .  S
C1009      H1021   1.082       .  S
C1010      H1022   1.082       .  S
N1025      H1057   1.041       .  S
N1025      C1030   1.351   1_565  A
N1025      C1425   1.352       .  A
N1026      C1034   1.349       .  A
N1027      H1058   1.041       .  S
N1027      C1032   1.351   1_565  A
N1027      C1427   1.351       .  A
N1028      C1036   1.351       .  A
C1029      N1421   1.352       .  A
C1029      C1037   1.387       .  A
C1029      C1045   1.412       .  A
C1030      C1046   1.412       .  A
C1030      C1038   1.387       .  A
C1031      N1423   1.351       .  A
C1031      C1039   1.387       .  A
C1031      C1048   1.412       .  A
C1032      C1047   1.411       .  A
C1032      C1040   1.387       .  A
C1033      C1045   1.408       .  A
C1033      C1041   1.386       .  A
C1034      C1048   1.409       .  A
C1034      C1042   1.386       .  A
C1035      C1043   1.386       .  A
C1035      C1046   1.411       .  A
C1036      C1044   1.386       .  A
C1036      C1047   1.410       .  A
C1037      C1434   1.376       .  A
C1037      H1049   1.082       .  S
C1038      C1433   1.376   1_545  A
C1038      H1050   1.082       .  S
C1039      C1436   1.376       .  A
C1039      H1051   1.082       .  S
C1040      C1435   1.376   1_545  A
C1040      H1052   1.082       .  S
C1041      H1053   1.082       .  S
C1042      H1054   1.082       .  S
C1043      H1055   1.082       .  S
C1044      H1056   1.082       .  S
C1045      C1120   1.480       .  S
C1046      C1130   1.483       .  S
C1047      C1140   1.482       .  S
C1048      C1113   1.481       .  S
Zn1059     O1063   1.959       .  S
Zn1059     O1064   2.018       .  S
Zn1059     O1068   2.013       .  S
Zn1059     O1075   2.019       .  S
Zn1060     O1065   2.000       .  S
Zn1060     O1067   2.009       .  S
Zn1060     O1071   2.006       .  S
Zn1061     O1063   1.956       .  S
Zn1061     O1066   2.012       .  S
Zn1061     O1069   2.011       .  S
Zn1061     O1072   2.006       .  S
Zn1062     O1070   2.006       .  S
Zn1062     O1073   2.012       .  S
Zn1062     O1074   2.009       .  S
O1064      C1076   1.274       .  A
O1066      C1078   1.271       .  A
O1068      C1078   1.271       .  A
O1069      C1077   1.273   1_556  A
O1071      C1080   1.270       .  A
O1072      C1079   1.273       .  A
O1073      C1080   1.271       .  A
O1075      C1081   1.274       .  A
C1076      C1163   1.480       .  S
C1077      C1153   1.479       .  S
C1078      C1105   1.432       .  S
C1079      C1183   1.479       .  S
C1080      C1107   1.431       .  S
C1081      C1173   1.479       .  S
Zn1082     O1086   1.955       .  S
Zn1082     O1087   2.011       .  S
Zn1082     O1091   2.011       .  S
Zn1082     O1098   2.010       .  S
Zn1083     O1086   1.956       .  S
Zn1083     O1088   2.010       .  S
Zn1083     O1090   2.013       .  S
Zn1083     O1094   2.010       .  S
Zn1084     O1086   1.956       .  S
Zn1084     O1089   2.012       .  S
Zn1084     O1092   2.011       .  S
Zn1084     O1095   2.004       .  S
Zn1085     O1086   1.961       .  S
Zn1085     O1093   2.016       .  S
Zn1085     O1096   2.010       .  S
Zn1085     O1097   2.019       .  S
O1087      C1099   1.273       .  A
O1088      C1100   1.273       .  A
O1089      C1101   1.271       .  A
O1090      C1099   1.273       .  A
O1091      C1101   1.271       .  A
O1092      C1100   1.273       .  A
O1093      C1102   1.274       .  A
O1094      C1103   1.271       .  A
O1095      C1102   1.273       .  A
O1096      C1103   1.271       .  A
O1097      C1104   1.274       .  A
O1098      C1104   1.273       .  A
C1099      C1110   1.480       .  S
C1100      C1123   1.478       .  S
C1101      C1106   1.432       .  S
C1102      C1133   1.479       .  S
C1103      C1108   1.431       .  S
C1104      C1143   1.481       .  S
C1105      C1106   1.204       .  T
C1107      C1108   1.203       .  T
C1109      C1110   1.407       .  A
C1109      C1114   1.397       .  A
C1109      H1115   1.083       .  S
C1110      C1111   1.407       .  A
C1111      C1112   1.396       .  A
C1111      H1116   1.083       .  S
C1112      C1113   1.402       .  A
C1112      H1117   1.083       .  S
C1113      C1114   1.402       .  A
C1114      H1118   1.083       .  S
C1119      C1120   1.401       .  A
C1119      C1124   1.396       .  A
C1119      H1125   1.083       .  S
C1120      C1121   1.402       .  A
C1121      C1122   1.397       .  A
C1121      H1126   1.083       .  S
C1122      C1123   1.407       .  A
C1122      H1127   1.083       .  S
C1123      C1124   1.407       .  A
C1124      H1128   1.083       .  S
C1129      C1130   1.401       .  A
C1129      C1134   1.394       .  A
C1129      H1135   1.083       .  S
C1130      C1131   1.403       .  A
C1131      C1132   1.398       .  A
C1131      H1136   1.083       .  S
C1132      C1133   1.407       .  A
C1132      H1137   1.083       .  S
C1133      C1134   1.406       .  A
C1134      H1138   1.083       .  S
C1139      C1140   1.401       .  A
C1139      C1144   1.397       .  A
C1139      H1145   1.083       .  S
C1140      C1141   1.402       .  A
C1141      C1142   1.397       .  A
C1141      H1146   1.083       .  S
C1142      C1143   1.407       .  A
C1142      H1147   1.083       .  S
C1143      C1144   1.408       .  A
C1144      H1148   1.083       .  S
C1149      C1150   1.404   1_556  A
C1149      C1154   1.396       .  A
C1149      H1155   1.083       .  S
C1151      C1152   1.395       .  A
C1151      H1156   1.083       .  S
C1152      H1157   1.083       .  S
C1153      C1154   1.406   1_554  A
C1154      H1158   1.083       .  S
C1159      C1160   1.402       .  A
C1159      C1164   1.397       .  A
C1159      H1165   1.083       .  S
C1161      H1166   1.083       .  S
C1162      C1163   1.406       .  A
C1162      H1167   1.083       .  S
C1163      C1164   1.407   1_556  A
C1164      H1168   1.083       .  S
C1169      C1170   1.402       .  A
C1169      C1174   1.398       .  A
C1169      H1175   1.083       .  S
C1171      H1176   1.083       .  S
C1172      C1173   1.407   1_554  A
C1173      C1174   1.407       .  A
C1174      H1178   1.083       .  S
C1179      C1180   1.403   1_554  A
C1179      C1184   1.397       .  A
C1179      H1185   1.083       .  S
C1181      C1182   1.396       .  A
C1181      H1186   1.083       .  S
C1182      H1187   1.083       .  S
C1183      C1184   1.407   1_556  A
C1184      H1188   1.083       .  S
N1189      H1221   1.041       .  S
N1189      C1193   1.351   1_554  A
N1190      C1198   1.350   1_455  A
N1191      H1222   1.041       .  S
N1191      C1195   1.351   1_554  A
N1192      C1200   1.350   1_455  A
C1193      C1201   1.387       .  A
C1193      C1209   1.412   1_556  A
C1194      C1210   1.413   1_556  A
C1194      C1202   1.387       .  A
C1195      C1203   1.387       .  A
C1195      C1212   1.411       .  A
C1196      C1211   1.412   1_556  A
C1196      C1204   1.387       .  A
C1197      C1209   1.411       .  A
C1197      C1205   1.387       .  A
C1198      C1212   1.409   1_554  A
C1198      C1206   1.386       .  A
C1199      C1207   1.386       .  A
C1199      C1210   1.411       .  A
C1200      C1208   1.386       .  A
C1200      C1211   1.410       .  A
C1201      H1213   1.082       .  S
C1202      H1214   1.082       .  S
C1203      H1215   1.082       .  S
C1204      H1216   1.082       .  S
C1205      H1217   1.082       .  S
C1206      H1218   1.082       .  S
C1207      H1219   1.082       .  S
C1208      H1220   1.082       .  S
C1209      C1576   1.483   1_554  S
C1210      C1546   1.486       .  S
C1211      C1556   1.483       .  S
C1212      C1566   1.480       .  S
N1223      H1255   1.040       .  S
N1223      C1228   1.351       .  A
N1224      C1232   1.350       .  A
N1225      H1256   1.040       .  S
N1225      C1230   1.351       .  A
N1226      C1234   1.350       .  A
C1227      C1235   1.387       .  A
C1227      C1243   1.412       .  A
C1228      C1244   1.412       .  A
C1228      C1236   1.387       .  A
C1229      C1237   1.387       .  A
C1229      C1246   1.412       .  A
C1230      C1245   1.412       .  A
C1230      C1238   1.387       .  A
C1231      C1243   1.409       .  A
C1231      C1239   1.385       .  A
C1232      C1246   1.411       .  A
C1232      C1240   1.387       .  A
C1233      C1241   1.386       .  A
C1233      C1244   1.411       .  A
C1234      C1242   1.386       .  A
C1234      C1245   1.410       .  A
C1235      H1247   1.082       .  S
C1236      H1248   1.082       .  S
C1237      H1249   1.082       .  S
C1238      H1250   1.082       .  S
C1239      H1251   1.082       .  S
C1240      H1252   1.082       .  S
C1241      H1253   1.082       .  S
C1242      H1254   1.082       .  S
C1243      C1318   1.480       .  S
C1244      C1328   1.483       .  S
C1245      C1338   1.482       .  S
C1246      C1311   1.483       .  S
Zn1257     O1261   1.957       .  S
Zn1257     O1262   2.014       .  S
Zn1257     O1266   2.010       .  S
Zn1257     O1273   2.018       .  S
Zn1258     O1459   1.956   1_554  S
Zn1258     O1263   2.008       .  S
Zn1258     O1265   2.009       .  S
Zn1258     O1269   2.014       .  S
Zn1259     O1261   1.960       .  S
Zn1259     O1264   2.011       .  S
Zn1259     O1267   2.017       .  S
Zn1259     O1270   2.013       .  S
Zn1260     O1459   1.956   1_554  S
Zn1260     O1268   2.012       .  S
Zn1260     O1271   2.009       .  S
Zn1260     O1272   2.005       .  S
O1261     Zn1456   1.955       .  S
O1261     Zn1458   1.954       .  S
O1262      C1274   1.274       .  A
O1263      C1473   1.273       .  A
O1264      C1276   1.271       .  A
O1265      C1472   1.273   1_554  A
O1266      C1276   1.271       .  A
O1267      C1275   1.274       .  A
O1268      C1475   1.273   1_554  A
O1269      C1278   1.271       .  A
O1270      C1277   1.273       .  A
O1271      C1278   1.271       .  A
O1272      C1477   1.273   1_554  A
O1273      C1279   1.274       .  A
C1274      C1361   1.480       .  S
C1274      O1463   1.273       .  A
C1275      C1351   1.478       .  S
C1275      O1461   1.272       .  A
C1276      C1303   1.431       .  S
C1277      C1381   1.479       .  S
C1277      O1466   1.273       .  A
C1278      C1305   1.432       .  S
C1279      C1371   1.480       .  S
C1279      O1470   1.273       .  A
Zn1280     O1284   1.955       .  S
Zn1280     O1285   2.004       .  S
Zn1280     O1289   2.009       .  S
Zn1280     O1296   2.010       .  S
Zn1281     O1284   1.957       .  S
Zn1281     O1286   2.008       .  S
Zn1281     O1288   2.012       .  S
Zn1281     O1292   2.009       .  S
Zn1282     O1284   1.956       .  S
Zn1282     O1287   2.011       .  S
Zn1282     O1290   2.011       .  S
Zn1282     O1293   2.006       .  S
Zn1283     O1284   1.959       .  S
Zn1283     O1291   2.016       .  S
Zn1283     O1294   2.016       .  S
Zn1283     O1295   2.019       .  S
O1285      C1297   1.273       .  A
O1286      C1298   1.273       .  A
O1287      C1299   1.271       .  A
O1288      C1297   1.273       .  A
O1289      C1299   1.270       .  A
O1290      C1298   1.273       .  A
O1291      C1300   1.274       .  A
O1292      C1301   1.271       .  A
O1293      C1300   1.273       .  A
O1294      C1301   1.272       .  A
O1295      C1302   1.274       .  A
O1296      C1302   1.273       .  A
C1297      C1308   1.478       .  S
C1298      C1321   1.478       .  S
C1299      C1304   1.431       .  S
C1300      C1331   1.479       .  S
C1301      C1306   1.432       .  S
C1302      C1341   1.481       .  S
C1303      C1304   1.204       .  T
C1305      C1306   1.204       .  T
C1307      C1308   1.406       .  A
C1307      C1312   1.397       .  A
C1307      H1313   1.083       .  S
C1308      C1309   1.406       .  A
C1309      C1310   1.395       .  A
C1309      H1314   1.083       .  S
C1310      C1311   1.402       .  A
C1310      H1315   1.083       .  S
C1311      C1312   1.403       .  A
C1312      H1316   1.083       .  S
C1317      C1318   1.401       .  A
C1317      C1322   1.395       .  A
C1317      H1323   1.083       .  S
C1318      C1319   1.402       .  A
C1319      C1320   1.397       .  A
C1319      H1324   1.083       .  S
C1320      C1321   1.407       .  A
C1320      H1325   1.083       .  S
C1321      C1322   1.406       .  A
C1322      H1326   1.083       .  S
C1327      C1328   1.402       .  A
C1327      C1332   1.395       .  A
C1327      H1333   1.083       .  S
C1328      C1329   1.403       .  A
C1329      C1330   1.398       .  A
C1329      H1334   1.083       .  S
C1330      C1331   1.407       .  A
C1330      H1335   1.083       .  S
C1331      C1332   1.406       .  A
C1332      H1336   1.083       .  S
C1337      C1338   1.402       .  A
C1337      C1342   1.397       .  A
C1337      H1343   1.083       .  S
C1338      C1339   1.402       .  A
C1339      C1340   1.396       .  A
C1339      H1344   1.083       .  S
C1340      C1341   1.406       .  A
C1340      H1345   1.083       .  S
C1341      C1342   1.408       .  A
C1342      H1346   1.083       .  S
C1347      C1348   1.403       .  A
C1347      C1352   1.397       .  A
C1347      H1353   1.083       .  S
C1348      C1547   1.402       .  A
C1348      C1408   1.484       .  S
C1349      C1546   1.403       .  A
C1349      C1350   1.396       .  A
C1349      H1354   1.083       .  S
C1350      C1549   1.406       .  A
C1350      H1355   1.083       .  S
C1351      C1548   1.407       .  A
C1351      C1352   1.406       .  A
C1352      H1356   1.083       .  S
C1357      C1358   1.403       .  A
C1357      C1362   1.397       .  A
C1357      H1363   1.083       .  S
C1358      C1557   1.402       .  A
C1358      C1409   1.483       .  S
C1359      C1556   1.403   1_556  A
C1359      C1558   1.396       .  A
C1359      H1364   1.083       .  S
C1360      C1557   1.395       .  A
C1360      C1361   1.406       .  A
C1360      H1365   1.083       .  S
C1361      C1362   1.407       .  A
C1362      H1366   1.083       .  S
C1367      C1368   1.402       .  A
C1367      C1372   1.398       .  A
C1367      H1373   1.083       .  S
C1368      C1567   1.401       .  A
C1368      C1410   1.482       .  S
C1369      C1566   1.400   1_554  A
C1369      C1568   1.395       .  A
C1369      H1374   1.083       .  S
C1370      C1567   1.395       .  A
C1370      C1371   1.407       .  A
C1370      H1573   1.083       .  S
C1371      C1372   1.407       .  A
C1372      H1376   1.083       .  S
H1375      C1568   1.083       .  S
C1377      C1378   1.401       .  A
C1377      C1382   1.396       .  A
C1377      H1383   1.083       .  S
C1378      C1577   1.403       .  A
C1378      C1407   1.482       .  S
C1379      C1576   1.402       .  A
C1379      C1380   1.395       .  A
C1379      H1384   1.083       .  S
C1380      C1579   1.406       .  A
C1380      H1385   1.083       .  S
C1381      C1578   1.406       .  A
C1381      C1382   1.407       .  A
C1382      H1386   1.083       .  S
N1387      H1419   1.040       .  S
N1387      C1391   1.352       .  A
N1388      C1396   1.350   1_455  A
N1389      H1420   1.041       .  S
N1389      C1393   1.351       .  A
N1390      C1398   1.349       .  A
C1391      C1399   1.386       .  A
C1391      C1407   1.412       .  A
C1392      C1408   1.413       .  A
C1392      C1400   1.387       .  A
C1393      C1401   1.386       .  A
C1393      C1410   1.411       .  A
C1394      C1409   1.411       .  A
C1394      C1402   1.386       .  A
C1395      C1407   1.410       .  A
C1395      C1403   1.386       .  A
C1396      C1410   1.409       .  A
C1396      C1404   1.386       .  A
C1397      C1405   1.386       .  A
C1397      C1408   1.410       .  A
C1398      C1406   1.386       .  A
C1398      C1409   1.410       .  A
C1399      H1411   1.082       .  S
C1400      H1412   1.082       .  S
C1401      H1413   1.082       .  S
C1402      H1414   1.082       .  S
C1403      H1415   1.082       .  S
C1404      H1416   1.082       .  S
C1405      H1417   1.082       .  S
C1406      H1418   1.082       .  S
N1421      H1453   1.041       .  S
N1421      C1426   1.351       .  A
N1422      C1430   1.349       .  A
N1423      H1454   1.041       .  S
N1423      C1428   1.351       .  A
N1424      C1432   1.351       .  A
C1425      C1433   1.387       .  A
C1425      C1441   1.412       .  A
C1426      C1442   1.412       .  A
C1426      C1434   1.387       .  A
C1427      C1435   1.387       .  A
C1427      C1444   1.412       .  A
C1428      C1443   1.411       .  A
C1428      C1436   1.387       .  A
C1429      C1441   1.408       .  A
C1429      C1437   1.386       .  A
C1430      C1444   1.409       .  A
C1430      C1438   1.386       .  A
C1431      C1439   1.386       .  A
C1431      C1442   1.411       .  A
C1432      C1440   1.386       .  A
C1432      C1443   1.410       .  A
C1433      H1445   1.082       .  S
C1434      H1446   1.082       .  S
C1435      H1447   1.082       .  S
C1436      H1448   1.082       .  S
C1437      H1449   1.082       .  S
C1438      H1450   1.082       .  S
C1439      H1451   1.082       .  S
C1440      H1452   1.082       .  S
C1441      C1516   1.480       .  S
C1442      C1526   1.483       .  S
C1443      C1536   1.482       .  S
C1444      C1509   1.481       .  S
Zn1455     O1459   1.959       .  S
Zn1455     O1460   2.017       .  S
Zn1455     O1464   2.013       .  S
Zn1455     O1471   2.019       .  S
Zn1456     O1461   1.999       .  S
Zn1456     O1463   2.009       .  S
Zn1456     O1467   2.006       .  S
Zn1457     O1459   1.956       .  S
Zn1457     O1462   2.012       .  S
Zn1457     O1465   2.011       .  S
Zn1457     O1468   2.006       .  S
Zn1458     O1466   2.006       .  S
Zn1458     O1469   2.012       .  S
Zn1458     O1470   2.009       .  S
O1460      C1472   1.274       .  A
O1462      C1474   1.271       .  A
O1464      C1474   1.271       .  A
O1465      C1473   1.273   1_556  A
O1467      C1476   1.270       .  A
O1468      C1475   1.273       .  A
O1469      C1476   1.271       .  A
O1471      C1477   1.274       .  A
C1472      C1559   1.480       .  S
C1473      C1549   1.479       .  S
C1474      C1501   1.432       .  S
C1475      C1579   1.479       .  S
C1476      C1503   1.431       .  S
C1477      C1569   1.479       .  S
Zn1478     O1482   1.955       .  S
Zn1478     O1483   2.011       .  S
Zn1478     O1487   2.011       .  S
Zn1478     O1494   2.010       .  S
Zn1479     O1482   1.957       .  S
Zn1479     O1484   2.009       .  S
Zn1479     O1486   2.013       .  S
Zn1479     O1490   2.010       .  S
Zn1480     O1482   1.956       .  S
Zn1480     O1485   2.012       .  S
Zn1480     O1488   2.011       .  S
Zn1480     O1491   2.005       .  S
Zn1481     O1482   1.961       .  S
Zn1481     O1489   2.016       .  S
Zn1481     O1492   2.010       .  S
Zn1481     O1493   2.019       .  S
O1483      C1495   1.273       .  A
O1484      C1496   1.273       .  A
O1485      C1497   1.271       .  A
O1486      C1495   1.273       .  A
O1487      C1497   1.271       .  A
O1488      C1496   1.273       .  A
O1489      C1498   1.274       .  A
O1490      C1499   1.271       .  A
O1491      C1498   1.273       .  A
O1492      C1499   1.271       .  A
O1493      C1500   1.274       .  A
O1494      C1500   1.273       .  A
C1495      C1506   1.480       .  S
C1496      C1519   1.478       .  S
C1497      C1502   1.432       .  S
C1498      C1529   1.479       .  S
C1499      C1504   1.431       .  S
C1500      C1539   1.481       .  S
C1501      C1502   1.204       .  T
C1503      C1504   1.203       .  T
C1505      C1506   1.407       .  A
C1505      C1510   1.397       .  A
C1505      H1511   1.083       .  S
C1506      C1507   1.407       .  A
C1507      C1508   1.396       .  A
C1507      H1512   1.083       .  S
C1508      C1509   1.402       .  A
C1508      H1513   1.083       .  S
C1509      C1510   1.402       .  A
C1510      H1514   1.083       .  S
C1515      C1516   1.401       .  A
C1515      C1520   1.396       .  A
C1515      H1521   1.083       .  S
C1516      C1517   1.402       .  A
C1517      C1518   1.397       .  A
C1517      H1522   1.083       .  S
C1518      C1519   1.407       .  A
C1518      H1523   1.083       .  S
C1519      C1520   1.407       .  A
C1520      H1524   1.083       .  S
C1525      C1526   1.401       .  A
C1525      C1530   1.394       .  A
C1525      H1531   1.083       .  S
C1526      C1527   1.403       .  A
C1527      C1528   1.398       .  A
C1527      H1532   1.083       .  S
C1528      C1529   1.407       .  A
C1528      H1533   1.083       .  S
C1529      C1530   1.406       .  A
C1530      H1534   1.083       .  S
C1535      C1536   1.401       .  A
C1535      C1540   1.397       .  A
C1535      H1541   1.083       .  S
C1536      C1537   1.402       .  A
C1537      C1538   1.397       .  A
C1537      H1542   1.083       .  S
C1538      C1539   1.407       .  A
C1538      H1543   1.083       .  S
C1539      C1540   1.408       .  A
C1540      H1544   1.083       .  S
C1545      C1546   1.404   1_556  A
C1545      C1550   1.396       .  A
C1545      H1551   1.083       .  S
C1547      C1548   1.395       .  A
C1547      H1552   1.083       .  S
C1548      H1553   1.083       .  S
C1549      C1550   1.406   1_554  A
C1550      H1554   1.083       .  S
C1555      C1556   1.402       .  A
C1555      C1560   1.397       .  A
C1555      H1561   1.083       .  S
C1557      H1562   1.083       .  S
C1558      C1559   1.406       .  A
C1558      H1563   1.083       .  S
C1559      C1560   1.407   1_556  A
C1560      H1564   1.083       .  S
C1565      C1566   1.402       .  A
C1565      C1570   1.398       .  A
C1565      H1571   1.083       .  S
C1567      H1572   1.083       .  S
C1568      C1569   1.407   1_554  A
C1569      C1570   1.407       .  A
C1570      H1574   1.083       .  S
C1575      C1576   1.403   1_554  A
C1575      C1580   1.397       .  A
C1575      H1581   1.083       .  S
C1577      C1578   1.396       .  A
C1577      H1582   1.083       .  S
C1578      H1583   1.083       .  S
C1579      C1580   1.407   1_556  A
C1580      H1584   1.083       .  S
