geometry optimzed in LAMMPS
_audit_creation_date              2020-11-30 
_audit_creation_method            'lammps2cif' 
_symmetry_space_group_name_H-M    'P1' 
_symmetry_Int_Tables_number       1 
_symmetry_cell_setting            triclinic 
loop_ 
_symmetry_equiv_pos_as_xyz 
  x,y,z 
_cell_length_a                    57.07644063 
_cell_length_b                    29.880040265290717 
_cell_length_c                    32.070802641288395 
_cell_angle_alpha                 90.00816095382376 
_cell_angle_beta                  90.0010955958035 
_cell_angle_gamma                 90.06593534501096 
loop_ 
_atom_site_label 
_atom_site_type_symbol 
_atom_site_fract_x 
_atom_site_fract_y 
_atom_site_fract_z 
_atom_site_charge 
O1          O  0.64785183  0.44374096  0.73634439    -0.56900
C2          C  0.68796238  0.43243635  0.63276995     0.75700
O3          O  0.71871520  0.49491568  0.74992154    -0.58000
C4          C  0.64956064  0.44637546  0.77568224     0.75700
C5          C  0.70882527  0.35183544  0.74286176     0.78100
Cd6        Cd  0.68984507  0.43905157  0.72251675     1.37500
O7          O  0.66971114  0.42716098  0.65472576    -0.56900
O8          O  0.68741885  0.35890131  0.73532898    -0.55700
C9          C  0.70804755  0.52866943  0.73517321     0.78100
O10         O  0.72201882  0.38604990  0.74242325    -0.58100
O11         O  0.70670920  0.43993625  0.65259358    -0.56500
O12         O  0.67013687  0.44522165  0.79038412    -0.56500
O13         O  0.68955690  0.52023461  0.71490773    -0.55700
O14         O  0.66344276  0.45423626  0.29785656    -0.56900
C15         C  0.64167745  0.45863116  0.17671312     0.75700
O16         O  0.68564240  0.53438746  0.23801415    -0.58000
C17         C  0.68185935  0.44630289  0.31862482     0.75700
C18         C  0.69942079  0.36260555  0.21341738     0.78100
Cd19       Cd  0.68279980  0.45313811  0.22909172     1.37500
O20         O  0.64035391  0.45865777  0.21611832    -0.56900
O21         O  0.67907731  0.37171380  0.22638884    -0.55700
C22         C  0.70369443  0.54128772  0.21610421     0.78100
O23         O  0.71244164  0.39616321  0.20575150    -0.58100
O24         O  0.66213803  0.45564021  0.16166477    -0.56500
O25         O  0.70062337  0.44243772  0.29789212    -0.56500
O26         O  0.71283326  0.50666967  0.19990724    -0.55700
C27         C  0.50016685  0.47689432  0.98827543     0.03200
C28         C  0.50098461  0.47434183  0.94429012     0.03200
C29         C  0.48031109  0.47993999  0.92119328    -0.17300
C30         C  0.45889323  0.48808065  0.94105288     0.03200
C31         C  0.45822731  0.49127395  0.98493180     0.03200
C32         C  0.47875652  0.48514096  0.00803385    -0.17300
H33         H  0.47815915  0.48784576  0.04175313     0.05200
H34         H  0.48094797  0.47854465  0.88739396     0.05200
O35         O  0.32033780  0.52340164  0.71429728    -0.56900
C36         C  0.28471295  0.53921291  0.61224511     0.75700
O37         O  0.24992671  0.47527053  0.73005229    -0.58000
C38         C  0.31855536  0.52384195  0.75368208     0.75700
C39         C  0.25852680  0.61688476  0.71969284     0.78100
Cd40       Cd  0.27859647  0.53020434  0.70067314     1.37500
O41         O  0.30150558  0.54640586  0.63714930    -0.56900
O42         O  0.27956144  0.60700974  0.72759377    -0.55700
C43         C  0.26008077  0.44110889  0.71502896     0.78100
O44         O  0.24597214  0.58554991  0.70507396    -0.58100
O45         O  0.26538320  0.52792225  0.62842467    -0.56500
O46         O  0.29802118  0.52753831  0.76832459    -0.56500
O47         O  0.27811523  0.44887915  0.69336656    -0.55700
O48         O  0.31931437  0.56819376  0.19820971    -0.56900
C49         C  0.28139578  0.57263917  0.30017744     0.75700
O50         O  0.25111097  0.63474421  0.18054158    -0.58000
C51         C  0.31744254  0.56591491  0.15886874     0.75700
C52         C  0.25583393  0.48945895  0.19554817     0.78100
Cd53       Cd  0.27754604  0.57601959  0.21087206     1.37500
O54         O  0.29938172  0.57270836  0.27706740    -0.56900
O55         O  0.27750533  0.49658265  0.19141503    -0.55700
C56         C  0.26338642  0.66769885  0.19277855     0.78100
O57         O  0.24338475  0.52324800  0.20474824    -0.58100
O58         O  0.26184992  0.57395404  0.28167740    -0.56500
O59         O  0.29703263  0.56973088  0.14366412    -0.56500
O60         O  0.28190009  0.65776469  0.21224527    -0.55700
O61         O  0.79825466  0.95390669  0.65193468    -0.56900
C62         C  0.81773330  0.93935041  0.77306183     0.75700
O63         O  0.74518181  0.99603891  0.72969441    -0.58000
C64         C  0.78049664  0.94475798  0.62979710     0.75700
C65         C  0.76151728  0.85144966  0.73486699     0.78100
Cd66       Cd  0.77793400  0.94162751  0.71935065     1.37500
O67         O  0.81983968  0.94303453  0.73380166    -0.56900
O68         O  0.77975492  0.86054575  0.71413193    -0.55700
C69         C  0.75854032  0.02877460  0.73820242     0.78100
O70         O  0.75029972  0.88480006  0.74921218    -0.58100
O71         O  0.79706546  0.93554393  0.78700471    -0.56500
O72         O  0.76184896  0.93524360  0.64914326    -0.56500
O73         O  0.78018000  0.02042032  0.73976855    -0.55700
O74         O  0.82065924  0.95976538  0.20921676    -0.56900
C75         C  0.78082875  0.94941482  0.31511839     0.75700
O76         O  0.74787911  0.00894513  0.20287081    -0.58000
C77         C  0.81788146  0.96447465  0.17023832     0.78100
C78         C  0.76254439  0.86189949  0.20647354     0.78100
Cd79       Cd  0.77858323  0.95274389  0.22540717     1.37500
O80         O  0.79912892  0.94919790  0.29277301    -0.56900
O81         O  0.78287933  0.87109966  0.21952780    -0.55700
C82         C  0.75932565  0.04247112  0.21651619     0.78100
O83         O  0.74917653  0.89536951  0.20078516    -0.58100
O84         O  0.76150831  0.95022593  0.29570134    -0.56500
O85         O  0.79698398  0.96265021  0.15708378    -0.56500
O86         O  0.77874621  0.03352489  0.23335836    -0.55700
C87         C  0.96069709  0.00433892  0.98843030     0.03200
C88         C  0.96131777  0.99738610  0.94486398     0.03200
C89         C  0.98271738  0.00055358  0.92359645    -0.17300
C90         C  0.00345721  0.01055164  0.94494978     0.03200
C91         C  0.00285658  0.01793849  0.98831118     0.03200
C92         C  0.98148609  0.01522753  0.00953646    -0.17300
H93         H  0.98110273  0.02082830  0.04295845     0.05200
H94         H  0.98326601  0.99485178  0.89018619     0.05200
O95         O  0.14653859  0.03087956  0.72732273    -0.56900
C96         C  0.18539012  0.03517415  0.62308609     0.75700
O97         O  0.21898154  0.08455976  0.73633065    -0.58000
C98         C  0.14840316  0.02891841  0.76663620     0.75700
C99         C  0.20772583  0.94018442  0.72747935     0.78100
Cd100      Cd  0.18850673  0.02918405  0.71287805     1.37500
O101        O  0.16778327  0.02512223  0.64517652    -0.56900
O102        O  0.18675185  0.94714098  0.71673162    -0.55700
C103        C  0.20592222  0.11847216  0.73089862     0.78100
O104        O  0.22038055  0.97480051  0.73213098    -0.58100
O105        O  0.20440159  0.04122121  0.64257047    -0.56500
O106        O  0.16904140  0.02702940  0.78115039    -0.56500
O107        O  0.18520425  0.11014428  0.71933282    -0.55700
O108        O  0.14416373  0.07223325  0.20729250    -0.56900
C109        C  0.18560032  0.07058544  0.30918848     0.75700
O110        O  0.21680535  0.02335434  0.18863181    -0.58000
C111        C  0.14518947  0.06935800  0.16794141     0.75700
C112        C  0.20467311  0.16515853  0.20183479     0.78100
Cd113      Cd  0.18668490  0.07543514  0.21900637     1.37500
O114        O  0.16708986  0.07675501  0.28820513    -0.56900
O115        O  0.18376466  0.15729036  0.21256201    -0.55700
C116        C  0.20647221  0.98788235  0.20041746     0.78100
O117        O  0.21778099  0.13110700  0.19829839    -0.58100
O118        O  0.20445743  0.06879058  0.28854319    -0.56500
O119        O  0.16553257  0.07024811  0.15215273    -0.56500
O120        O  0.18743216  0.99364878  0.21980452    -0.55700
C121        C  0.20125363  0.07240556  0.51387357    -0.01100
C122        C  0.18341156  0.05287460  0.48949017     0.07500
C123        C  0.16583140  0.02773302  0.50923549    -0.07000
C124        C  0.16591227  0.02163189  0.55263150     0.05000
C125        C  0.18405121  0.04058763  0.57706664    -0.14300
C126        C  0.20151257  0.06596780  0.55708718    -0.07600
C127        C  0.18336884  0.05709995  0.44325705     0.05900
C128        C  0.20197228  0.03848369  0.42059487    -0.08700
C129        C  0.20300098  0.04224050  0.37710820     0.00900
C130        C  0.18516793  0.06540798  0.35531183     0.00800
C131        C  0.16628380  0.08327017  0.37805904    -0.12300
C132        C  0.16526874  0.07927956  0.42162822     0.01200
C133        C  0.22206517  0.02027761  0.35573243     0.40500
C134        C  0.14576374  0.09905726  0.44354938     0.37100
C135        C  0.21921056  0.10007497  0.49533610     0.36900
C136        C  0.14754178  0.99474171  0.57085321     0.37600
N137        N  0.23726741  0.00245111  0.33859854    -0.43200
N138        N  0.13011110  0.11479451  0.46116188    -0.43600
N139        N  0.13280052  0.97320582  0.58543644    -0.41000
N140        N  0.23356629  0.12232440  0.48048227    -0.42400
H141        H  0.21533435  0.08135719  0.57532358     0.13800
H142        H  0.15219502  0.01238868  0.49060931     0.10300
H143        H  0.21566763  0.02062835  0.43700749     0.11300
H144        H  0.15243844  0.10081180  0.36190096     0.17100
C145        C  0.11044918  0.00573033  0.86094195    -0.01100
C146        C  0.08837742  0.02146492  0.84772951     0.07500
C147        C  0.08624528  0.04133667  0.80831615    -0.07000
C148        C  0.10551971  0.04460364  0.78153906     0.05000
C149        C  0.12759527  0.02797724  0.79428789    -0.14300
C150        C  0.12979992  0.00919960  0.83429885    -0.07600
C151        C  0.06716568  0.01790062  0.87425735     0.05900
C152        C  0.05553178  0.05730777  0.88603740    -0.08700
C153        C  0.03470044  0.05547094  0.90893920     0.00900
C154        C  0.02552648  0.01373336  0.92113799     0.00800
C155        C  0.03694794  0.97430625  0.90913441    -0.12300
C156        C  0.05752954  0.97603647  0.88547723     0.01200
C157        C  0.02239764  0.09654122  0.91793342     0.40500
C158        C  0.06776038  0.93453187  0.87137383     0.37100
C159        C  0.11370295  0.98614223  0.90169796     0.36900
C160        C  0.10206588  0.06591955  0.74159458     0.37600
N161        N  0.01231201  0.12926964  0.92491332    -0.43200
N162        N  0.07594505  0.90128142  0.86000303    -0.43600
N163        N  0.09920083  0.08301066  0.70961789    -0.41000
N164        N  0.11626797  0.97011176  0.93422503    -0.42400
H165        H  0.14661505  0.99647409  0.84461042     0.13800
H166        H  0.06939252  0.05385947  0.79829089     0.10300
H167        H  0.06253638  0.08950010  0.87663107     0.11300
H168        H  0.02951846  0.94218663  0.91765481     0.17100
C169        C  0.04954501  0.08147256  0.04742348    -0.01100
C170        C  0.06410466  0.04649457  0.06142245     0.07500
C171        C  0.05883370  0.00222789  0.05040843    -0.07000
C172        C  0.03919651  0.99238255  0.02595324     0.05000
C173        C  0.02441134  0.02726017  0.01244620    -0.14300
C174        C  0.02971190  0.07158844  0.02336575    -0.07600
C175        C  0.08462064  0.05493088  0.08855027     0.05900
C176        C  0.08262101  0.04644464  0.13134382    -0.08700
C177        C  0.10195395  0.05120479  0.15789343     0.00900
C178        C  0.12387662  0.06499729  0.14153790     0.00800
C179        C  0.12566746  0.07369834  0.09849875    -0.12300
C180        C  0.10629539  0.06872406  0.07205428     0.01200
C181        C  0.09888597  0.03956285  0.20125724     0.40500
C182        C  0.10912629  0.07674820  0.02793818     0.37100
C183        C  0.05450351  0.12751471  0.05781308     0.36900
C184        C  0.03432460  0.94622472  0.01587106     0.37600
N185        N  0.09639619  0.02996758  0.23594042    -0.43200
N186        N  0.11129593  0.08303545  0.99254163    -0.43600
N187        N  0.03057629  0.90912838  0.00790666    -0.41000
N188        N  0.05854385  0.16443559  0.06603758    -0.42400
H189        H  0.01827371  0.09840989  0.01322351     0.13800
H190        H  0.07004097  0.97532610  0.06118909     0.10300
H191        H  0.06600138  0.03527556  0.14384796     0.11300
H192        H  0.14229805  0.08413740  0.08531646     0.17100
C193        C  0.87866179  0.99669665  0.13330755    -0.01100
C194        C  0.87724823  0.98885237  0.09000314     0.07500
C195        C  0.85615313  0.97340914  0.07291195    -0.07000
C196        C  0.83664363  0.96509323  0.09825470     0.05000
C197        C  0.83802897  0.97249971  0.14182283    -0.14300
C198        C  0.85917558  0.98850288  0.15872754    -0.07600
C199        C  0.89811471  0.99309592  0.06265262     0.05900
C200        C  0.91704927  0.96419120  0.06948761    -0.08700
C201        C  0.93722248  0.96681709  0.04496508     0.00900
C202        C  0.93882205  0.99916547  0.01305267     0.00800
C203        C  0.91964895  0.02747429  0.00543855    -0.12300
C204        C  0.89928113  0.02445778  0.02978831     0.01200
C205        C  0.95591354  0.93532409  0.05255266     0.40500
C206        C  0.88005604  0.05443977  0.02120930     0.37100
C207        C  0.89990383  0.01340340  0.15226589     0.36900
C208        C  0.81588497  0.94704547  0.07876595     0.37600
N209        N  0.97094665  0.91016723  0.05847820    -0.43200
N210        N  0.86458393  0.07832679  0.01432683    -0.43600
N211        N  0.79929498  0.93239568  0.06311058    -0.41000
N212        N  0.91694933  0.02671993  0.16740105    -0.42400
H213        H  0.86051145  0.99484423  0.19199181     0.13800
H214        H  0.85514697  0.96661728  0.03966175     0.10300
H215        H  0.91598522  0.93930136  0.09404422     0.11300
H216        H  0.92074656  0.05233230  0.98087331     0.17100
C217        C  0.88110338  0.94050954  0.80670013    -0.01100
C218        C  0.87934611  0.94881286  0.84977973     0.07500
C219        C  0.85721977  0.95119934  0.86846766    -0.07000
C220        C  0.83680527  0.94727539  0.84452129     0.05000
C221        C  0.83849054  0.94024468  0.80087505    -0.14300
C222        C  0.86080187  0.93609983  0.78273878    -0.07600
C223        C  0.90026055  0.96022297  0.87477836     0.05900
C224        C  0.91096558  0.00180090  0.86789973    -0.08700
C225        C  0.93072845  0.01457603  0.89065245     0.00900
C226        C  0.94005804  0.98539099  0.92092615     0.00800
C227        C  0.92928169  0.94381182  0.92798588    -0.12300
C228        C  0.90941395  0.93110416  0.90523050     0.01200
C229        C  0.94079289  0.05816913  0.88304755     0.40500
C230        C  0.89902195  0.88785278  0.91301148     0.37100
C231        C  0.90358754  0.93725031  0.78630008     0.36900
C232        C  0.81461581  0.95333357  0.86541783     0.37600
N233        N  0.94876732  0.09316831  0.87686816    -0.43200
N234        N  0.89075976  0.85312523  0.91933447    -0.43600
N235        N  0.79690884  0.95848619  0.88233489    -0.41000
N236        N  0.92159291  0.93468677  0.76989639    -0.42400
H237        H  0.86247776  0.93031946  0.74946303     0.13800
H238        H  0.85592464  0.95814763  0.90166027     0.10300
H239        H  0.90374952  0.02438474  0.84478143     0.11300
H240        H  0.93651484  0.92124341  0.95104924     0.17100
C241        C  0.76136408  0.96352662  0.42728469    -0.01100
C242        C  0.78165819  0.95161139  0.44963879     0.07500
C243        C  0.80191365  0.93932366  0.42781860    -0.07000
C244        C  0.80219951  0.93848154  0.38415603     0.05000
C245        C  0.78171038  0.94958178  0.36146321    -0.14300
C246        C  0.76146619  0.96206994  0.38365739    -0.07600
C247        C  0.78185040  0.95020529  0.49583952     0.05900
C248        C  0.76821176  0.91785631  0.51612601    -0.08700
C249        C  0.76791333  0.91495930  0.55963189     0.00900
C250        C  0.78130572  0.94528182  0.58370421     0.00800
C251        C  0.79536674  0.97707973  0.56330223    -0.12300
C252        C  0.79572519  0.97974288  0.51966820     0.01200
C253        C  0.75463013  0.87918079  0.57862373     0.40500
C254        C  0.81003942  0.01351748  0.49993828     0.37100
C255        C  0.74050965  0.97870681  0.44850410     0.36900
C256        C  0.82370229  0.92537722  0.36388189     0.37600
N257        N  0.74414843  0.85028975  0.59381814    -0.43200
N258        N  0.82151292  0.04043349  0.48389683    -0.43600
N259        N  0.84102781  0.91498094  0.34785252    -0.41000
N260        N  0.72389811  0.99115620  0.46562069    -0.42400
H261        H  0.74570061  0.97146191  0.36689937     0.13800
H262        H  0.81748781  0.93001319  0.44502654     0.10300
H263        H  0.75794085  0.89435999  0.49773279     0.11300
H264        H  0.80576934  0.00045682  0.58150521     0.17100
C265        C  0.20212912  0.29013239  0.18097614    -0.01100
C266        C  0.22558956  0.30374449  0.18669041     0.07500
C267        C  0.24260980  0.27090043  0.19492341    -0.07000
C268        C  0.23651658  0.22543071  0.19850431     0.05000
C269        C  0.21283060  0.21201709  0.19440509    -0.14300
C270        C  0.19597184  0.24488505  0.18505256    -0.07600
C271        C  0.23244095  0.35213402  0.18648801     0.05900
C272        C  0.22192688  0.38143601  0.21526309    -0.08700
C273        C  0.22857140  0.42663692  0.21763906     0.00900
C274        C  0.24619907  0.44343841  0.19097104     0.00800
C275        C  0.25657675  0.41423164  0.16194356    -0.12300
C276        C  0.24978336  0.36912443  0.15934529     0.01200
C277        C  0.21822904  0.45411199  0.24975698     0.40500
C278        C  0.26073269  0.34105216  0.12832728     0.37100
C279        C  0.18403793  0.32198848  0.17059927     0.36900
C280        C  0.25481552  0.19384261  0.20831696     0.37600
N281        N  0.21006130  0.47607199  0.27567504    -0.43200
N282        N  0.26951135  0.31852800  0.10348616    -0.43600
N283        N  0.26958018  0.16870381  0.21617981    -0.41000
N284        N  0.16957116  0.34759069  0.16230878    -0.42400
H285        H  0.17780688  0.23528839  0.18113248     0.13800
H286        H  0.26064595  0.28097073  0.19967620     0.10300
H287        H  0.20892518  0.36863633  0.23674650     0.11300
H288        H  0.27017181  0.42660579  0.14142042     0.17100
C289        C  0.26122040  0.79368538  0.20823543    -0.01100
C290        C  0.24231642  0.80650080  0.18270393     0.07500
C291        C  0.23119550  0.77399647  0.15803401    -0.07000
C292        C  0.23813059  0.72888727  0.15956260     0.05000
C293        C  0.25651632  0.71551224  0.18645947    -0.14300
C294        C  0.26824018  0.74875725  0.20971038    -0.07600
C295        C  0.23252084  0.85264675  0.18470134     0.05900
C296        C  0.24431634  0.88832523  0.16539541    -0.08700
C297        C  0.23606756  0.93254577  0.16908126     0.00900
C298        C  0.21579297  0.94173590  0.19314565     0.00800
C299        C  0.20392419  0.90549205  0.21178623    -0.12300
C300        C  0.21202559  0.86150132  0.20764265     0.01200
C301        C  0.24865180  0.96741691  0.14742951     0.40500
C302        C  0.19933017  0.82592985  0.22816945     0.37100
C303        C  0.27275879  0.82569513  0.23505463     0.36900
C304        C  0.22601093  0.69727583  0.13323865     0.37600
N305        N  0.25871337  0.99525038  0.12981786    -0.43200
N306        N  0.18921017  0.79728245  0.24448523    -0.43600
N307        N  0.21632752  0.67194487  0.11204318    -0.41000
N308        N  0.28184517  0.85142570  0.25666619    -0.42400
H309        H  0.28243008  0.73949504  0.23043176     0.13800
H310        H  0.21666169  0.78378072  0.13827395     0.10300
H311        H  0.26003477  0.88158907  0.14757679     0.11300
H312        H  0.18835682  0.91140079  0.23019600     0.17100
C313        C  0.25465719  0.73562077  0.76098255    -0.01100
C314        C  0.23693523  0.75434609  0.73581718     0.07500
C315        C  0.22562499  0.72703483  0.70636055    -0.07000
C316        C  0.23182684  0.68195137  0.70135040     0.05000
C317        C  0.24972002  0.66317777  0.72628819    -0.14300
C318        C  0.26088392  0.69050396  0.75604918    -0.07600
C319        C  0.23017332  0.80249289  0.73856423     0.05900
C320        C  0.24647538  0.83574099  0.72754197    -0.08700
C321        C  0.23988396  0.88101408  0.72523500     0.00900
C322        C  0.21648996  0.89366944  0.73369693     0.00800
C323        C  0.20045050  0.86039288  0.74606960    -0.12300
C324        C  0.20713583  0.81534398  0.74889396     0.01200
C325        C  0.25710709  0.91324080  0.71161935     0.40500
C326        C  0.19011325  0.78275651  0.76271942     0.37100
C327        C  0.26655786  0.76186267  0.79229999     0.36900
C328        C  0.22052163  0.65673899  0.66861430     0.37600
N329        N  0.27088699  0.93910939  0.70061741    -0.43200
N330        N  0.17662813  0.75642481  0.77392824    -0.43600
N331        N  0.21153815  0.63666453  0.64220014    -0.41000
N332        N  0.27615172  0.78277081  0.81743967    -0.42400
H333        H  0.27467178  0.67667931  0.77536016     0.13800
H334        H  0.21223172  0.74135735  0.68649912     0.10300
H335        H  0.26414991  0.82611914  0.71934110     0.11300
H336        H  0.18256603  0.86953048  0.75329247     0.17100
C337        C  0.20530310  0.24528775  0.72501602    -0.01100
C338        C  0.22859311  0.25681351  0.73511343     0.07500
C339        C  0.24407010  0.22277375  0.74749309    -0.07000
C340        C  0.23710949  0.17766152  0.74780513     0.05000
C341        C  0.21404675  0.16577854  0.73580103    -0.14300
C342        C  0.19828511  0.20036206  0.72552646    -0.07600
C343        C  0.23730657  0.30378791  0.73120432     0.05900
C344        C  0.22648591  0.33811933  0.75410961    -0.08700
C345        C  0.23351612  0.38293645  0.74973175     0.00900
C346        C  0.25176998  0.39426637  0.72175546     0.00800
C347        C  0.26287220  0.35956416  0.69955428    -0.12300
C348        C  0.25591435  0.31487203  0.70410781     0.01200
C349        C  0.22191722  0.41616378  0.77499970     0.40500
C350        C  0.26793424  0.28114638  0.67994539     0.37100
C351        C  0.18846482  0.27869326  0.71232277     0.36900
C352        C  0.25421080  0.14465563  0.76001841     0.37600
N353        N  0.21265639  0.44271064  0.79544349    -0.43200
N354        N  0.27770757  0.25410917  0.66085542    -0.43600
N355        N  0.26808185  0.11851073  0.76991248    -0.41000
N356        N  0.17494257  0.30547845  0.70237130    -0.42400
H357        H  0.18045901  0.19233809  0.71657775     0.13800
H358        H  0.26185864  0.23146041  0.75621465     0.10300
H359        H  0.21248876  0.32982036  0.77556142     0.11300
H360        H  0.27700588  0.36724506  0.67821688     0.17100
C361        C  0.27352977  0.52030604  0.49781794    -0.01100
C362        C  0.28832415  0.55224671  0.47903319     0.07500
C363        C  0.30309121  0.57845653  0.50409426    -0.07000
C364        C  0.30277315  0.57405561  0.54760851     0.05000
C365        C  0.28720648  0.54330427  0.56653050    -0.14300
C366        C  0.27291671  0.51638733  0.54118024    -0.07600
C367        C  0.28749960  0.56018304  0.43347746     0.05900
C368        C  0.26648986  0.57543236  0.41594157    -0.08700
C369        C  0.26408695  0.58024276  0.37281837     0.00900
C370        C  0.28321952  0.57030770  0.34626863     0.00800
C371        C  0.30455681  0.55656967  0.36417480    -0.12300
C372        C  0.30675489  0.55117906  0.40738225     0.01200
C373        C  0.24172402  0.59532799  0.35714613     0.40500
C374        C  0.32853860  0.53438729  0.42403491     0.37100
C375        C  0.25900905  0.49086323  0.47310042     0.36900
C376        C  0.31771747  0.60301346  0.57196862     0.37600
N377        N  0.22371758  0.60726738  0.34486193    -0.43200
N378        N  0.34595831  0.52080358  0.43744308    -0.43600
N379        N  0.32969937  0.62624103  0.59147442    -0.41000
N380        N  0.24747419  0.46729910  0.45310558    -0.42400
H381        H  0.26123268  0.49210966  0.55527708     0.13800
H382        H  0.31442166  0.60308102  0.48969047     0.10300
H383        H  0.25176586  0.58280182  0.43608377     0.11300
H384        H  0.31931447  0.54873895  0.34444475     0.17100
C385        C  0.35492246  0.52311661  0.85235823    -0.01100
C386        C  0.37740540  0.51303833  0.83705087     0.07500
C387        C  0.38071530  0.50677197  0.79418853    -0.07000
C388        C  0.36196067  0.51027310  0.76634907     0.05000
C389        C  0.33923740  0.52023869  0.78149920    -0.14300
C390        C  0.33609225  0.52664005  0.82463830    -0.07600
C391        C  0.39781588  0.50818088  0.86505664     0.05900
C392        C  0.39914906  0.47063626  0.89114480    -0.08700
C393        C  0.41894219  0.46328157  0.91594357     0.00900
C394        C  0.43762809  0.49423785  0.91518239     0.00800
C395        C  0.43631053  0.53162618  0.88881821    -0.12300
C396        C  0.41653342  0.53893959  0.86401740     0.01200
C397        C  0.42016443  0.42270909  0.94024334     0.40500
C398        C  0.41561244  0.57843366  0.83812111     0.37100
C399        C  0.35088995  0.53093201  0.89619774     0.36900
C400        C  0.36672845  0.50271629  0.72269052     0.37600
N401        N  0.42110292  0.39003540  0.95953419    -0.43200
N402        N  0.41473352  0.61006085  0.81735867    -0.43600
N403        N  0.37061905  0.49663026  0.68772954    -0.41000
N404        N  0.34763363  0.53740154  0.93129269    -0.42400
H405        H  0.31888145  0.53460154  0.83688663     0.13800
H406        H  0.39799851  0.49879681  0.78255880     0.10300
H407        H  0.38493712  0.44651230  0.89130577     0.11300
H408        H  0.45071970  0.55531319  0.88791233     0.17100
C409        C  0.40662480  0.48019274  0.05735640    -0.01100
C410        C  0.39695034  0.52350846  0.05576797     0.07500
C411        C  0.40725410  0.55622846  0.03040437    -0.07000
C412        C  0.42703146  0.54620420  0.00647027     0.05000
C413        C  0.43659176  0.50271721  0.00774439    -0.14300
C414        C  0.42641691  0.47021071  0.03354698    -0.07600
C415        C  0.37634546  0.53556207  0.08109849     0.05900
C416        C  0.37955414  0.56215055  0.11663548    -0.08700
C417        C  0.36058184  0.57283403  0.14237445     0.00900
C418        C  0.33790040  0.55749991  0.13195137     0.00800
C419        C  0.33472306  0.53174702  0.09573599    -0.12300
C420        C  0.35378249  0.52023476  0.07061272     0.01200
C421        C  0.36482779  0.60007100  0.17881304     0.40500
C422        C  0.34995306  0.49192133  0.03474755     0.37100
C423        C  0.39684405  0.44593538  0.08393258     0.36900
C424        C  0.43782915  0.58151015  0.98247188     0.37600
N425        N  0.36815521  0.62181367  0.20809354    -0.43200
N426        N  0.34706795  0.46881574  0.00624214    -0.43600
N427        N  0.44649138  0.60991433  0.96337094    -0.41000
N428        N  0.38894940  0.41854512  0.10523862    -0.42400
H429        H  0.43410186  0.43703948  0.03525537     0.13800
H430        H  0.39993467  0.58972181  0.02966495     0.10300
H431        H  0.39693454  0.57389183  0.12455618     0.11300
H432        H  0.31741416  0.51939616  0.08772577     0.17100
C433        C  0.71125776  0.66659530  0.23155046    -0.01100
C434        C  0.72819030  0.67818889  0.20132183     0.07500
C435        C  0.73786537  0.64396248  0.17663430    -0.07000
C436        C  0.73060221  0.59914066  0.18100655     0.05000
C437        C  0.71304374  0.58775856  0.21040500    -0.14300
C438        C  0.70367686  0.62215589  0.23537762    -0.07600
C439        C  0.73715339  0.72515060  0.19725897     0.05900
C440        C  0.76100002  0.73348542  0.20425386    -0.08700
C441        C  0.76989770  0.77729407  0.20522248     0.00900
C442        C  0.75466109  0.81447174  0.19991467     0.00800
C443        C  0.73103205  0.80577336  0.19021298    -0.12300
C444        C  0.72231528  0.76176896  0.18831705     0.01200
C445        C  0.79477781  0.78247460  0.21183790     0.40500
C446        C  0.69812764  0.75497173  0.17672834     0.37100
C447        C  0.70212788  0.69929395  0.26045962     0.36900
C448        C  0.74154051  0.56585188  0.15488103     0.37600
N449        N  0.81476784  0.78610860  0.21690048    -0.43200
N450        N  0.67875338  0.74946618  0.16738165    -0.43600
N451        N  0.75045199  0.53926282  0.13399121    -0.41000
N452        N  0.69482414  0.72546155  0.28365915    -0.42400
H453        H  0.69056598  0.61430893  0.25869968     0.13800
H454        H  0.75123329  0.65231433  0.15390259     0.10300
H455        H  0.77268525  0.70555156  0.21007005     0.11300
H456        H  0.71913185  0.83348922  0.18474848     0.17100
C457        C  0.72331398  0.14382993  0.18291612    -0.01100
C458        C  0.73443256  0.17934188  0.20433476     0.07500
C459        C  0.75374849  0.16961228  0.22970996    -0.07000
C460        C  0.76204160  0.12572947  0.23419037     0.05000
C461        C  0.75085908  0.08978056  0.21297548    -0.14300
C462        C  0.73148490  0.09967455  0.18745098    -0.07600
C463        C  0.72528655  0.22628209  0.20329000     0.05900
C464        C  0.70233689  0.23439847  0.21684243    -0.08700
C465        C  0.69332072  0.27795180  0.21914876     0.00900
C466        C  0.70760303  0.31525476  0.20856069     0.00800
C467        C  0.73052708  0.30693161  0.19435897    -0.12300
C468        C  0.73934485  0.26311613  0.19141632     0.01200
C469        C  0.66933868  0.28270025  0.23279330     0.40500
C470        C  0.76271817  0.25679027  0.17528449     0.37100
C471        C  0.70378054  0.15210049  0.15539647     0.36900
C472        C  0.78174524  0.11901333  0.26175880     0.37600
N473        N  0.65006929  0.28608494  0.24357444    -0.43200
N474        N  0.78142485  0.25184400  0.16216488    -0.43600
N475        N  0.79752888  0.11383684  0.28389434    -0.41000
N476        N  0.68813219  0.15899649  0.13337984    -0.42400
H477        H  0.72276862  0.07291765  0.17064259     0.13800
H478        H  0.76214936  0.19649590  0.24691045     0.10300
H479        H  0.69143763  0.20640648  0.22635206     0.11300
H480        H  0.74171939  0.33475304  0.18563060     0.17100
C481        C  0.54818828  0.51052511  0.06291037    -0.01100
C482        C  0.56118507  0.47066756  0.06668979     0.07500
C483        C  0.55417969  0.43256787  0.04431572    -0.07000
C484        C  0.53435459  0.43369222  0.01857456     0.05000
C485        C  0.52148023  0.47373775  0.01452243    -0.14300
C486        C  0.52853506  0.51176744  0.03692658    -0.07600
C487        C  0.58186133  0.46782778  0.09452841     0.05900
C488        C  0.57850108  0.46894607  0.13778185    -0.08700
C489        C  0.59754797  0.46631514  0.16524034     0.00900
C490        C  0.62063362  0.46194656  0.14933687     0.00800
C491        C  0.62380783  0.46114172  0.10576688    -0.12300
C492        C  0.60472137  0.46427226  0.07847330     0.01200
C493        C  0.59265044  0.46877887  0.20935432     0.40500
C494        C  0.60899891  0.46524809  0.03408866     0.37100
C495        C  0.55488211  0.55064873  0.08498684     0.36900
C496        C  0.52701573  0.39293804  0.99824287     0.37600
N497        N  0.58858459  0.47096639  0.24465316    -0.43200
N498        N  0.61231974  0.46634432  0.99850427    -0.43600
N499        N  0.52119552  0.36000534  0.98230688    -0.41000
N500        N  0.56023719  0.58281931  0.10269059    -0.42400
H501        H  0.51861745  0.54262720  0.03397410     0.13800
H502        H  0.56399165  0.40173119  0.04761209     0.10300
H503        H  0.56089043  0.47200447  0.15008681     0.11300
H504        H  0.64128436  0.45839767  0.09279933     0.17100
C505        C  0.70693953  0.22720817  0.76354694    -0.01100
C506        C  0.73038268  0.21409865  0.75708367     0.07500
C507        C  0.74733470  0.24722623  0.74930883    -0.07000
C508        C  0.74109660  0.29259431  0.74626067     0.05000
C509        C  0.71736689  0.30548318  0.75075402    -0.14300
C510        C  0.70066889  0.27231805  0.76027318    -0.07600
C511        C  0.73705481  0.16592026  0.75458628     0.05900
C512        C  0.72597840  0.13876641  0.72470042    -0.08700
C513        C  0.73206640  0.09366329  0.71991311     0.00900
C514        C  0.74984223  0.07492244  0.74498274     0.00800
C515        C  0.76100680  0.10207493  0.77483731    -0.12300
C516        C  0.75461998  0.14707555  0.78008260     0.01200
C517        C  0.72083216  0.06833748  0.68719011     0.40500
C518        C  0.76603830  0.17293245  0.81225995     0.37100
C519        C  0.68889579  0.19488982  0.77320092     0.36900
C520        C  0.75926438  0.32452037  0.73639942     0.37600
N521        N  0.71184120  0.04826956  0.66078556    -0.43200
N522        N  0.77516536  0.19358460  0.83812717    -0.43600
N523        N  0.77393210  0.34990928  0.72847850    -0.41000
N524        N  0.67443866  0.16895429  0.78078735    -0.42400
H525        H  0.68247058  0.28146299  0.76447306     0.13800
H526        H  0.76534909  0.23743175  0.74400058     0.10300
H527        H  0.71284780  0.15314583  0.70441622     0.11300
H528        H  0.77472101  0.08809743  0.79410593     0.17100
C529        C  0.71114726  0.65474202  0.72195886    -0.01100
C530        C  0.73087152  0.66646456  0.74588685     0.07500
C531        C  0.74303640  0.63293739  0.76749981    -0.07000
C532        C  0.73593731  0.58791676  0.76514630     0.05000
C533        C  0.71632718  0.57580658  0.74043642    -0.14300
C534        C  0.70404679  0.60996761  0.71945415    -0.07600
C535        C  0.73995584  0.71309348  0.74577286     0.05900
C536        C  0.72999153  0.74527047  0.77225273    -0.08700
C537        C  0.73691043  0.79041741  0.77009899     0.00900
C538        C  0.75396263  0.80400804  0.74058850     0.00800
C539        C  0.76423820  0.77115690  0.71493395    -0.12300
C540        C  0.75738118  0.72625284  0.71727450     0.01200
C541        C  0.72649103  0.82163038  0.79898036     0.40500
C542        C  0.76795851  0.69436106  0.68917020     0.37100
C543        C  0.69831428  0.68809211  0.69873016     0.36900
C544        C  0.74918478  0.55522815  0.78837150     0.37600
N545        N  0.71818906  0.84653125  0.82232875    -0.43200
N546        N  0.77637694  0.66875105  0.66664290    -0.43600
N547        N  0.75984600  0.52915501  0.80710791    -0.41000
N548        N  0.68810906  0.71492236  0.68012619    -0.42400
H549        H  0.68897982  0.60177179  0.70041937     0.13800
H550        H  0.75829682  0.64192902  0.78576713     0.10300
H551        H  0.71662131  0.73514402  0.79428055     0.11300
H552        H  0.77737155  0.78058747  0.69222785     0.17100
C553        C  0.58575699  0.45543159  0.80629867    -0.01100
C554        C  0.58685822  0.45714532  0.85017896     0.07500
C555        C  0.60878105  0.45582703  0.86986746    -0.07000
C556        C  0.62950213  0.45340454  0.84660539     0.05000
C557        C  0.62842630  0.45041687  0.80251273    -0.14300
C558        C  0.60635273  0.45156859  0.78304751    -0.07600
C559        C  0.56534274  0.46105692  0.87591426     0.05900
C560        C  0.54795164  0.42798331  0.87252728    -0.08700
C561        C  0.52696670  0.43154560  0.89475620     0.00900
C562        C  0.52332106  0.46836259  0.92150331     0.00800
C563        C  0.54084007  0.50103556  0.92545032    -0.12300
C564        C  0.56175732  0.49766126  0.90301001     0.01200
C565        C  0.50952871  0.39683943  0.89003350     0.40500
C566        C  0.57888571  0.53297514  0.90719172     0.37100
C567        C  0.56378803  0.45931431  0.78423726     0.36900
C568        C  0.65138723  0.45539514  0.86911745     0.37600
N569        N  0.49548169  0.36914047  0.88646295    -0.43200
N570        N  0.59267613  0.56115900  0.91059869    -0.43600
N571        N  0.66878950  0.45754135  0.88754269    -0.41000
N572        N  0.54622703  0.46258887  0.76646775    -0.42400
H573        H  0.60508708  0.45007326  0.74933786     0.13800
H574        H  0.60970188  0.45728168  0.90360744     0.10300
H575        H  0.55073572  0.39949427  0.85218419     0.11300
H576        H  0.53794249  0.52974400  0.94547593     0.17100
C577        C  0.66655317  0.40855298  0.52287872    -0.01100
C578        C  0.68459072  0.42719105  0.49833452     0.07500
C579        C  0.70398066  0.44667833  0.51805057    -0.07000
C580        C  0.70559526  0.44831119  0.56153039     0.05000
C581        C  0.68738611  0.43026237  0.58643977    -0.14300
C582        C  0.66802184  0.41030526  0.56653010    -0.07600
C583        C  0.68316020  0.42918889  0.45211185     0.05900
C584        C  0.66521596  0.45434293  0.43360284    -0.08700
C585        C  0.66429203  0.46030931  0.39030467     0.00900
C586        C  0.68167806  0.44089031  0.36461707     0.00800
C587        C  0.69952316  0.41541519  0.38328764    -0.12300
C588        C  0.70034971  0.40933313  0.42653339     0.01200
C589        C  0.64596096  0.48826122  0.37351834     0.40500
C590        C  0.71884694  0.38216751  0.44391286     0.37100
C591        C  0.64656987  0.38693958  0.50392329     0.36900
C592        C  0.72578946  0.47033085  0.57933009     0.37600
N593        N  0.63128597  0.51081025  0.36019790    -0.43200
N594        N  0.73367525  0.36040173  0.45781359    -0.43600
N595        N  0.74198360  0.48804114  0.59349024    -0.41000
N596        N  0.63059869  0.36962361  0.48858645    -0.42400
H597        H  0.65406928  0.39599275  0.58496195     0.13800
H598        H  0.71772079  0.46158215  0.49928125     0.10300
H599        H  0.65220831  0.47036882  0.45322466     0.11300
H600        H  0.71285432  0.39987087  0.36399152     0.17100
loop_ 
_geom_bond_atom_site_label_1 
_geom_bond_atom_site_label_2 
_geom_bond_distance 
_geom_bond_site_symmetry_2 
_ccdc_geom_bond_type 
O1            C4   1.268       .  A
O1           Cd6   2.442       .  S
C2           O11   1.264       .  A
C2            O7   1.267       .  A
C2          C581   1.488       .  S
O3            C9   1.270       .  A
O3           Cd6   2.503       .  S
C4           O12   1.266       .  A
C4          C557   1.487       .  S
C5           O10   1.269       .  A
C5            O8   1.263       .  A
C5          C509   1.491       .  S
Cd6          O13   2.438       .  S
Cd6          O12   2.457       .  S
Cd6          O11   2.440       .  S
Cd6           O7   2.484       .  S
Cd6          O10   2.509       .  S
Cd6           O8   2.434       .  S
C9           O13   1.265       .  A
C9          C533   1.495       .  S
O14          C17   1.267       .  A
O14         Cd19   2.467       .  S
C15          O24   1.267       .  A
C15          O20   1.266       .  A
C15         C490   1.491       .  S
O16          C22   1.264       .  A
O16         Cd19   2.450       .  S
C17          O25   1.266       .  A
C17         C586   1.484       .  S
C18          O23   1.271       .  A
C18          O21   1.263       .  A
C18         C466   1.499       .  S
Cd19         O26   2.523       .  S
Cd19         O25   2.451       .  S
Cd19         O24   2.464       .  S
Cd19         O20   2.464       .  S
Cd19         O23   2.515       .  S
Cd19         O21   2.444       .  S
C22          O26   1.270       .  A
C22         C437   1.498       .  S
C27         C485   1.482   1_556  S
C27          C28   1.413       .  A
C27          C32   1.399   1_556  A
C28         C562   1.480       .  S
C28          C29   1.403       .  A
C29          C30   1.400       .  A
C29          H34   1.085       .  S
C30         C394   1.482       .  S
C30          C31   1.411       .  A
C31         C413   1.476   1_556  S
C31          C32   1.399   1_556  A
C32          H33   1.085       .  S
O35          C38   1.267       .  A
O35         Cd40   2.431       .  S
C36          O45   1.265       .  A
C36          O41   1.266       .  A
C36         C365   1.478       .  S
O37          C43   1.269       .  A
O37         Cd40   2.501       .  S
C38          O46   1.268       .  A
C38         C389   1.484       .  S
C39          O44   1.268       .  A
C39          O42   1.262       .  A
C39         C317   1.487       .  S
Cd40         O47   2.441       .  S
Cd40         O46   2.438       .  S
Cd40         O45   2.438       .  S
Cd40         O41   2.468       .  S
Cd40         O44   2.496       .  S
Cd40         O42   2.452       .  S
C43          O47   1.263       .  A
C43         C346   1.493       .  S
O48          C51   1.268       .  A
O48         Cd53   2.430       .  S
C49          O58   1.264       .  A
C49          O54   1.266       .  A
C49         C370   1.483       .  S
O50          C56   1.270       .  A
O50         Cd53   2.512       .  S
C51          O59   1.268       .  A
C51         C418   1.474       .  S
C52          O57   1.270       .  A
C52          O55   1.262       .  A
C52         C274   1.488       .  S
Cd53         O60   2.455       .  S
Cd53         O59   2.433       .  S
Cd53         O58   2.442       .  S
Cd53         O54   2.464       .  S
Cd53         O57   2.514       .  S
Cd53         O55   2.454       .  S
C56          O60   1.263       .  A
C56         C293   1.496       .  S
O61          C64   1.267       .  A
O61         Cd66   2.481       .  S
C62          O71   1.267       .  A
C62          O67   1.270       .  A
C62         C221   1.483       .  S
O63          C69   1.269   1_565  A
O63         Cd66   2.501       .  S
C64          O72   1.264       .  A
C64         C250   1.479       .  S
C65          O70   1.271       .  A
C65          O68   1.265       .  A
C65         C538   1.493       .  S
Cd66         O73   2.447   1_565  S
Cd66         O72   2.439       .  S
Cd66         O71   2.436       .  S
Cd66         O67   2.437       .  S
Cd66         O70   2.506       .  S
Cd66         O68   2.431       .  S
C69          O73   1.261       .  A
C69         C514   1.482       .  S
O74          C77   1.268       .  A
O74         Cd79   2.466       .  S
C75          O84   1.267       .  A
C75          O80   1.267       .  A
C75         C245   1.487       .  S
O76          C82   1.273       .  A
O76         Cd79   2.534   1_545  S
C77          O85   1.266       .  A
C77         C197   1.487       .  S
C78          O83   1.272       .  A
C78          O81   1.264       .  A
C78         C442   1.501       .  S
Cd79         O86   2.427   1_565  S
Cd79         O85   2.448       .  S
Cd79         O84   2.457       .  S
Cd79         O80   2.461       .  S
Cd79         O83   2.524       .  S
Cd79         O81   2.459       .  S
C82          O86   1.262       .  A
C82         C461   1.499       .  S
C87         C202   1.485   1_546  S
C87          C88   1.413   1_545  A
C87          C92   1.404   1_556  A
C88         C226   1.480       .  S
C88          C89   1.402   1_565  A
C89          C90   1.399   1_655  A
C89          H94   1.085   1_545  S
C90         C154   1.476       .  S
C90          C91   1.408       .  A
C91         C173   1.480   1_556  S
C91          C92   1.399   1_456  A
C92          H93   1.085       .  S
O95          C98   1.267       .  A
O95        Cd100   2.440       .  S
C96         O105   1.265       .  A
C96         O101   1.265       .  A
C96         C125   1.487       .  S
O97         C103   1.271       .  A
O97        Cd100   2.514       .  S
C98         O106   1.268       .  A
C98         C149   1.482       .  S
C99         O104   1.270       .  A
C99         O102   1.263       .  A
C99         C322   1.491       .  S
Cd100       O107   2.435       .  S
Cd100       O106   2.456       .  S
Cd100       O105   2.457       .  S
Cd100       O101   2.475       .  S
Cd100       O104   2.518   1_545  S
Cd100       O102   2.457   1_545  S
C103        O107   1.264       .  A
C103        C341   1.495       .  S
O108        C111   1.266       .  A
O108       Cd113   2.458       .  S
C109        O118   1.265       .  A
C109        O114   1.266       .  A
C109        C130   1.488       .  S
O110        C116   1.270   1_545  A
O110       Cd113   2.516       .  S
C111        O119   1.267       .  A
C111        C178   1.488       .  S
C112        O117   1.269       .  A
C112        O115   1.264       .  A
C112        C269   1.494       .  S
Cd113       O120   2.444   1_545  S
Cd113       O119   2.465       .  S
Cd113       O118   2.458       .  S
Cd113       O114   2.485       .  S
Cd113       O117   2.520       .  S
Cd113       O115   2.460       .  S
C116        O120   1.264       .  A
C116        C298   1.497       .  S
C121        C122   1.410       .  A
C121        C126   1.399       .  A
C121        C135   1.444       .  S
C122        C127   1.488       .  S
C122        C123   1.404       .  A
C123        C124   1.404       .  A
C123        H142   1.083       .  S
C124        C125   1.416       .  A
C124        C136   1.444   1_545  S
C125        C126   1.406       .  A
C126        H141   1.084       .  S
C127        C128   1.402       .  A
C127        C132   1.410       .  A
C128        C129   1.400       .  A
C128        H143   1.083       .  S
C129        C130   1.416       .  A
C129        C133   1.444       .  S
C130        C131   1.407       .  A
C131        C132   1.404       .  A
C131        H144   1.081       .  S
C132        C134   1.444       .  S
C133        N137   1.157       .  T
C134        N138   1.157       .  T
C135        N140   1.157       .  T
C136        N139   1.157       .  T
C145        C146   1.410       .  A
C145        C150   1.400       .  A
C145        C159   1.444   1_545  S
C146        C151   1.483       .  S
C146        C147   1.402       .  A
C147        C148   1.399       .  A
C147        H166   1.081       .  S
C148        C149   1.415       .  A
C148        C160   1.444       .  S
C149        C150   1.406       .  A
C150        H165   1.084   1_545  S
C151        C152   1.404       .  A
C151        C156   1.413   1_545  A
C152        C153   1.399       .  A
C152        H167   1.084       .  S
C153        C154   1.408       .  A
C153        C157   1.444       .  S
C154        C155   1.401   1_545  A
C155        C156   1.399       .  A
C155        H168   1.084       .  S
C156        C158   1.444       .  S
C157        N161   1.157       .  T
C158        N162   1.157       .  T
C159        N164   1.157       .  T
C160        N163   1.157       .  T
C169        C170   1.409       .  A
C169        C174   1.401       .  A
C169        C183   1.443       .  S
C170        C175   1.480       .  S
C170        C171   1.401       .  A
C171        C172   1.399   1_545  A
C171        H190   1.084   1_545  S
C172        C173   1.410   1_565  A
C172        C184   1.443       .  S
C173        C174   1.403       .  A
C174        H189   1.084       .  S
C175        C176   1.400       .  A
C175        C180   1.407       .  A
C176        C177   1.401       .  A
C176        H191   1.082       .  S
C177        C178   1.418       .  A
C177        C181   1.444       .  S
C178        C179   1.408       .  A
C179        C180   1.401       .  A
C179        H192   1.085       .  S
C180        C182   1.444       .  S
C181        N185   1.157       .  T
C182        N186   1.157   1_554  T
C183        N188   1.157       .  T
C184        N187   1.157       .  T
C193        C194   1.411       .  A
C193        C198   1.400       .  A
C193        C207   1.445   1_565  S
C194        C199   1.484       .  S
C194        C195   1.401       .  A
C195        C196   1.401       .  A
C195        H214   1.087       .  S
C196        C197   1.417       .  A
C196        C208   1.443       .  S
C197        C198   1.406       .  A
C198        H213   1.086       .  S
C199        C200   1.401       .  A
C199        C204   1.412   1_565  A
C200        C201   1.397       .  A
C200        H215   1.085       .  S
C201        C202   1.411       .  A
C201        C205   1.444       .  S
C202        C203   1.405   1_565  A
C203        C204   1.403       .  A
C203        H216   1.085   1_554  S
C204        C206   1.444       .  S
C205        N209   1.157       .  T
C206        N210   1.157       .  T
C207        N212   1.157       .  T
C208        N211   1.157       .  T
C217        C218   1.407       .  A
C217        C222   1.396       .  A
C217        C231   1.444       .  S
C218        C223   1.477       .  S
C218        C219   1.400       .  A
C219        C220   1.400       .  A
C219        H238   1.087       .  S
C220        C221   1.419       .  A
C220        C232   1.444       .  S
C221        C222   1.406       .  A
C222        H237   1.085       .  S
C223        C224   1.401   1_565  A
C223        C228   1.409       .  A
C224        C225   1.396       .  A
C224        H239   1.084       .  S
C225        C226   1.410   1_545  A
C225        C229   1.444       .  S
C226        C227   1.404       .  A
C227        C228   1.401       .  A
C227        H240   1.083       .  S
C228        C230   1.443       .  S
C229        N233   1.157       .  T
C230        N234   1.157       .  T
C231        N236   1.157       .  T
C232        N235   1.158       .  T
C241        C242   1.408       .  A
C241        C246   1.400       .  A
C241        C255   1.445       .  S
C242        C247   1.482       .  S
C242        C243   1.401       .  A
C243        C244   1.401       .  A
C243        H262   1.083       .  S
C244        C245   1.417       .  A
C244        C256   1.443       .  S
C245        C246   1.408       .  A
C246        H261   1.085       .  S
C247        C248   1.401       .  A
C247        C252   1.410       .  A
C248        C249   1.398       .  A
C248        H263   1.088       .  S
C249        C250   1.414       .  A
C249        C253   1.445       .  S
C250        C251   1.405       .  A
C251        C252   1.402       .  A
C251        H264   1.086   1_565  S
C252        C254   1.444   1_565  S
C253        N257   1.157       .  T
C254        N258   1.157       .  T
C255        N260   1.157       .  T
C256        N259   1.157       .  T
C265        C266   1.411       .  A
C265        C270   1.403       .  A
C265        C279   1.444       .  S
C266        C271   1.497       .  S
C266        C267   1.407       .  A
C267        C268   1.407       .  A
C267        H286   1.083       .  S
C268        C269   1.416       .  A
C268        C280   1.443       .  S
C269        C270   1.408       .  A
C270        H285   1.083       .  S
C271        C272   1.407       .  A
C271        C276   1.412       .  A
C272        C273   1.404       .  A
C272        H287   1.082       .  S
C273        C274   1.412       .  A
C273        C277   1.444       .  S
C274        C275   1.407       .  A
C275        C276   1.405       .  A
C275        H288   1.082       .  S
C276        C278   1.444       .  S
C277        N281   1.157       .  T
C278        N282   1.157       .  T
C279        N284   1.157       .  T
C280        N283   1.157       .  T
C289        C290   1.408       .  A
C289        C294   1.402       .  A
C289        C303   1.445       .  S
C290        C295   1.490       .  S
C290        C291   1.404       .  A
C291        C292   1.406       .  A
C291        H310   1.084       .  S
C292        C293   1.416       .  A
C292        C304   1.443       .  S
C293        C294   1.410       .  A
C294        H309   1.084       .  S
C295        C296   1.404       .  A
C295        C300   1.407       .  A
C296        C297   1.408       .  A
C296        H311   1.083       .  S
C297        C298   1.418       .  A
C297        C301   1.443       .  S
C298        C299   1.410       .  A
C299        C300   1.400       .  A
C299        H312   1.081       .  S
C300        C302   1.445       .  S
C301        N305   1.157       .  T
C302        N306   1.157       .  T
C303        N308   1.157       .  T
C304        N307   1.157       .  T
C313        C314   1.410       .  A
C313        C318   1.403       .  A
C313        C327   1.443       .  S
C314        C319   1.493       .  S
C314        C315   1.405       .  A
C315        C316   1.402       .  A
C315        H334   1.084       .  S
C316        C317   1.414       .  A
C316        C328   1.444       .  S
C317        C318   1.408       .  A
C318        H333   1.084       .  S
C319        C320   1.406       .  A
C319        C324   1.410       .  A
C320        C321   1.406       .  A
C320        H335   1.082       .  S
C321        C322   1.414       .  A
C321        C325   1.443       .  S
C322        C323   1.408       .  A
C323        C324   1.402       .  A
C323        H336   1.082       .  S
C324        C326   1.445       .  S
C325        N329   1.157       .  T
C326        N330   1.157       .  T
C327        N332   1.157       .  T
C328        N331   1.157       .  T
C337        C338   1.410       .  A
C337        C342   1.401       .  A
C337        C351   1.445       .  S
C338        C343   1.494       .  S
C338        C339   1.405       .  A
C339        C340   1.405       .  A
C339        H358   1.084       .  S
C340        C341   1.416       .  A
C340        C352   1.443       .  S
C341        C342   1.410       .  A
C342        H357   1.084       .  S
C343        C344   1.405       .  A
C343        C348   1.411       .  A
C344        C345   1.405       .  A
C344        H359   1.083       .  S
C345        C346   1.416       .  A
C345        C349   1.443       .  S
C346        C347   1.409       .  A
C347        C348   1.400       .  A
C347        H360   1.082       .  S
C348        C350   1.445       .  S
C349        N353   1.157       .  T
C350        N354   1.157       .  T
C351        N356   1.157       .  T
C352        N355   1.157       .  T
C361        C362   1.409       .  A
C361        C366   1.396       .  A
C361        C375   1.445       .  S
C362        C367   1.481       .  S
C362        C363   1.403       .  A
C363        C364   1.402       .  A
C363        H382   1.083       .  S
C364        C365   1.414       .  A
C364        C376   1.444       .  S
C365        C366   1.404       .  A
C366        H381   1.084       .  S
C367        C368   1.401       .  A
C367        C372   1.408       .  A
C368        C369   1.397       .  A
C368        H383   1.083       .  S
C369        C370   1.416       .  A
C369        C373   1.444       .  S
C370        C371   1.408       .  A
C371        C372   1.401       .  A
C371        H384   1.079       .  S
C372        C374   1.444       .  S
C373        N377   1.157       .  T
C374        N378   1.157       .  T
C375        N380   1.157       .  T
C376        N379   1.157       .  T
C385        C386   1.407       .  A
C385        C390   1.399       .  A
C385        C399   1.444       .  S
C386        C391   1.478       .  S
C386        C387   1.400       .  A
C387        C388   1.398       .  A
C387        H406   1.081       .  S
C388        C389   1.417       .  A
C388        C400   1.444       .  S
C389        C390   1.408       .  A
C390        H405   1.085       .  S
C391        C392   1.402       .  A
C391        C396   1.409       .  A
C392        C393   1.399       .  A
C392        H407   1.085       .  S
C393        C394   1.411       .  A
C393        C397   1.443       .  S
C394        C395   1.403       .  A
C395        C396   1.398       .  A
C395        H408   1.085       .  S
C396        C398   1.444       .  S
C397        N401   1.157       .  T
C398        N402   1.157       .  T
C399        N404   1.157       .  T
C400        N403   1.157       .  T
C409        C410   1.409       .  A
C409        C414   1.396       .  A
C409        C423   1.444       .  S
C410        C415   1.474       .  S
C410        C411   1.401       .  A
C411        C412   1.398       .  A
C411        H430   1.085       .  S
C412        C413   1.410       .  A
C412        C424   1.444   1_554  S
C413        C414   1.402       .  A
C414        H429   1.086       .  S
C415        C416   1.401       .  A
C415        C420   1.407       .  A
C416        C417   1.399       .  A
C416        H431   1.082       .  S
C417        C418   1.413       .  A
C417        C421   1.444       .  S
C418        C419   1.405       .  A
C419        C420   1.397       .  A
C419        H432   1.085       .  S
C420        C422   1.444       .  S
C421        N425   1.157       .  T
C422        N426   1.157       .  T
C423        N428   1.157       .  T
C424        N427   1.157       .  T
C433        C434   1.412       .  A
C433        C438   1.402       .  A
C433        C447   1.445       .  S
C434        C439   1.499       .  S
C434        C435   1.407       .  A
C435        C436   1.409       .  A
C435        H454   1.084       .  S
C436        C437   1.417       .  A
C436        C448   1.443       .  S
C437        C438   1.409       .  A
C438        H453   1.084       .  S
C439        C440   1.401       .  A
C439        C444   1.414       .  A
C440        C441   1.404       .  A
C440        H455   1.085       .  S
C441        C442   1.422       .  A
C441        C445   1.444       .  S
C442        C443   1.408       .  A
C443        C444   1.407       .  A
C443        H456   1.086       .  S
C444        C446   1.444       .  S
C445        N449   1.157       .  T
C446        N450   1.157       .  T
C447        N452   1.157       .  T
C448        N451   1.157       .  T
C457        C458   1.414       .  A
C457        C462   1.407       .  A
C457        C471   1.443       .  S
C458        C463   1.498       .  S
C458        C459   1.401       .  A
C459        C460   1.402       .  A
C459        H478   1.086       .  S
C460        C461   1.422       .  A
C460        C472   1.445       .  S
C461        C462   1.408       .  A
C462        H477   1.085       .  S
C463        C464   1.402       .  A
C463        C468   1.414       .  A
C464        C465   1.402       .  A
C464        H479   1.086       .  S
C465        C466   1.421       .  A
C465        C469   1.444       .  S
C466        C467   1.408       .  A
C467        C468   1.406       .  A
C467        H480   1.085       .  S
C468        C470   1.444       .  S
C469        N473   1.157       .  T
C470        N474   1.157       .  T
C471        N476   1.157       .  T
C472        N475   1.157       .  T
C481        C482   1.409       .  A
C481        C486   1.398       .  A
C481        C495   1.443       .  S
C482        C487   1.482       .  S
C482        C483   1.403       .  A
C483        C484   1.401       .  A
C483        H502   1.084       .  S
C484        C485   1.411       .  A
C484        C496   1.443   1_554  S
C485        C486   1.403       .  A
C486        H501   1.087       .  S
C487        C488   1.401       .  A
C487        C492   1.407       .  A
C488        C489   1.401       .  A
C488        H503   1.084       .  S
C489        C490   1.419       .  A
C489        C493   1.444       .  S
C490        C491   1.409       .  A
C491        C492   1.401       .  A
C491        H504   1.084       .  S
C492        C494   1.445       .  S
C493        N497   1.157       .  T
C494        N498   1.157   1_554  T
C495        N500   1.157       .  T
C496        N499   1.157       .  T
C505        C506   1.410       .  A
C505        C510   1.399       .  A
C505        C519   1.445       .  S
C506        C511   1.492       .  S
C506        C507   1.406       .  A
C507        C508   1.405       .  A
C507        H526   1.083       .  S
C508        C509   1.416       .  A
C508        C520   1.443       .  S
C509        C510   1.408       .  A
C510        H525   1.083       .  S
C511        C512   1.405       .  A
C511        C516   1.411       .  A
C512        C513   1.401       .  A
C512        H527   1.082       .  S
C513        C514   1.411       .  A
C513        C517   1.444       .  S
C514        C515   1.407       .  A
C515        C516   1.404       .  A
C515        H528   1.082       .  S
C516        C518   1.444       .  S
C517        N521   1.157       .  T
C518        N522   1.157       .  T
C519        N524   1.157       .  T
C520        N523   1.157       .  T
C529        C530   1.406       .  A
C529        C534   1.400       .  A
C529        C543   1.444       .  S
C530        C535   1.486       .  S
C530        C531   1.403       .  A
C531        C532   1.406       .  A
C531        H550   1.083       .  S
C532        C533   1.418       .  A
C532        C544   1.443       .  S
C533        C534   1.410       .  A
C534        H549   1.082       .  S
C535        C536   1.404       .  A
C535        C540   1.407       .  A
C536        C537   1.407       .  A
C536        H551   1.083       .  S
C537        C538   1.417       .  A
C537        C541   1.443       .  S
C538        C539   1.409       .  A
C539        C540   1.399       .  A
C539        H552   1.082       .  S
C540        C542   1.444       .  S
C541        N545   1.157       .  T
C542        N546   1.157       .  T
C543        N548   1.157       .  T
C544        N547   1.157       .  T
C553        C554   1.410       .  A
C553        C558   1.397       .  A
C553        C567   1.445       .  S
C554        C559   1.484       .  S
C554        C555   1.402       .  A
C555        C556   1.400       .  A
C555        H574   1.084       .  S
C556        C557   1.418       .  A
C556        C568   1.444       .  S
C557        C558   1.407       .  A
C558        H573   1.084       .  S
C559        C560   1.404       .  A
C559        C564   1.412       .  A
C560        C561   1.398       .  A
C560        H575   1.084       .  S
C561        C562   1.411       .  A
C561        C565   1.444       .  S
C562        C563   1.402       .  A
C563        C564   1.398       .  A
C563        H576   1.084       .  S
C564        C566   1.444       .  S
C565        N569   1.157       .  T
C566        N570   1.157       .  T
C567        N572   1.157       .  T
C568        N571   1.157       .  T
C577        C578   1.410       .  A
C577        C582   1.403       .  A
C577        C591   1.444       .  S
C578        C583   1.486       .  S
C578        C579   1.401       .  A
C579        C580   1.398       .  A
C579        H598   1.084       .  S
C580        C581   1.417       .  A
C580        C592   1.444       .  S
C581        C582   1.408       .  A
C582        H597   1.080       .  S
C583        C584   1.403       .  A
C583        C588   1.410       .  A
C584        C585   1.401       .  A
C584        H599   1.085       .  S
C585        C586   1.415       .  A
C585        C589   1.444       .  S
C586        C587   1.406       .  A
C587        C588   1.400       .  A
C587        H600   1.086       .  S
C588        C590   1.444       .  S
C589        N593   1.157       .  T
C590        N594   1.157       .  T
C591        N596   1.157       .  T
C592        N595   1.157       .  T
