geometry optimzed in LAMMPS
_audit_creation_date              2020-11-30 
_audit_creation_method            'lammps2cif' 
_symmetry_space_group_name_H-M    'P1' 
_symmetry_Int_Tables_number       1 
_symmetry_cell_setting            triclinic 
loop_ 
_symmetry_equiv_pos_as_xyz 
  x,y,z 
_cell_length_a                    53.93929717 
_cell_length_b                    53.78617662174313 
_cell_length_c                    36.69929326391474 
_cell_angle_alpha                 89.32934967342399 
_cell_angle_beta                  90.44611183956874 
_cell_angle_gamma                 117.75825139544071 
loop_ 
_atom_site_label 
_atom_site_type_symbol 
_atom_site_fract_x 
_atom_site_fract_y 
_atom_site_fract_z 
_atom_site_charge 
C1          C  0.17346332  0.33112191  0.28697837     0.46700
H2          H  0.17435218  0.33218788  0.31709294    -0.02400
C3          C  0.17151256  0.32953033  0.21632711     0.46700
H4          H  0.17024283  0.32899742  0.18618218    -0.02400
C5          C  0.15669088  0.34510258  0.27028837    -0.16100
C6          C  0.20249015  0.34573599  0.26890749    -0.15800
C7          C  0.15960013  0.30113904  0.27186704    -0.16200
C8          C  0.15550947  0.34395974  0.23286425    -0.16200
C9          C  0.20148256  0.34536620  0.23138993    -0.15700
C10         C  0.15882482  0.30029924  0.23436004    -0.16100
O11         O  0.10919420  0.08301863  0.12520771    -0.56600
C12         C  0.12044364  0.01247950  0.11264831     0.76000
O13         O  0.17212539  0.08382525  0.04203698    -0.57800
C14         C  0.11694735  0.10545849  0.10674395     0.76000
C15         C  0.19501993  0.10165507  0.14426139     0.78400
Cd16       Cd  0.14571147  0.07237167  0.10021209     1.37500
O17         O  0.10746833  0.02611365  0.12066166    -0.56600
O18         O  0.17107236  0.09506452  0.15727598    -0.55400
C19         C  0.15039733  0.07270412  0.02229026     0.78300
O20         O  0.19558029  0.09419108  0.11189919    -0.57800
O21         O  0.14556940  0.02669118  0.10260032    -0.56200
O22         O  0.13802261  0.11262300  0.08636895    -0.56200
O23         O  0.12705426  0.06178335  0.03848072    -0.55400
O24         O  0.41829649  0.38490675  0.37479842    -0.56600
C25         C  0.48821565  0.37559690  0.38781793     0.76000
O26         O  0.41802001  0.32293923  0.45998540    -0.57800
C27         C  0.39509174  0.37629262  0.39115602     0.76000
C28         C  0.40135943  0.29746951  0.35462106     0.78400
Cd29       Cd  0.42820028  0.34733505  0.39945962     1.37500
O30         O  0.47310410  0.38621491  0.37606544    -0.56600
O31         O  0.40594238  0.32149753  0.34310213    -0.55400
C32         C  0.42648609  0.34537308  0.47803319     0.78300
O33         O  0.40965958  0.29649066  0.38667018    -0.57800
O34         O  0.47551933  0.35134403  0.40187852    -0.56200
O35         O  0.38643578  0.35347250  0.40892938    -0.56200
O36         O  0.43544577  0.36799739  0.45994837    -0.55400
O37         O  0.11524025  0.02905060  0.37965060    -0.56600
C38         C  0.12180499  0.10637816  0.39468445     0.76000
O39         O  0.17456531  0.08222180  0.46513989    -0.57800
C40         C  0.12571989  0.01430371  0.39334579     0.76000
C41         C  0.20022097  0.10209481  0.35879598     0.78400
Cd42       Cd  0.15134352  0.07410432  0.40438023     1.37500
O43         O  0.11287159  0.08270635  0.37953452    -0.56600
O44         O  0.20062141  0.10890496  0.39172871    -0.55400
C45         C  0.15168061  0.07274898  0.48250064     0.78300
O46         O  0.17757492  0.08213451  0.34740980    -0.57800
O47         O  0.14472116  0.11536904  0.41173727    -0.56200
O48         O  0.14894747  0.02734784  0.40977855    -0.56200
O49         O  0.12944278  0.06346591  0.46385294    -0.55400
O50         O  0.03231351  0.41642431  0.37711857    -0.56600
C51         C  0.11077135  0.48345895  0.39264984     0.76000
O52         O  0.09089668  0.41022660  0.46095307    -0.57800
C53         C  0.01895729  0.39122284  0.38816104     0.76000
C54         C  0.10629277  0.39925396  0.35701876     0.78400
Cd55       Cd  0.07869926  0.42329490  0.40080698     1.37500
O56         O  0.08693463  0.47008528  0.37774753    -0.56600
O57         O  0.09911505  0.41676963  0.34367228    -0.55400
C58         C  0.07932793  0.42177466  0.47922146     0.78300
O59         O  0.10047119  0.39282423  0.39022518    -0.57800
O60         O  0.12040441  0.46897612  0.40904042    -0.56200
O61         O  0.03332666  0.38057258  0.40216646    -0.56200
O62         O  0.06766872  0.43371405  0.46139417    -0.55400
O63         O  0.08113554  0.46692462  0.12019337    -0.56600
C64         C  0.01843028  0.38947059  0.10614489     0.76000
O65         O  0.08908050  0.40825339  0.03782424    -0.57800
C66         C  0.10658036  0.48169862  0.11161533     0.76000
C67         C  0.10438921  0.39627018  0.14183603     0.78400
Cd68       Cd  0.07804071  0.42211127  0.09752270     1.37500
O69         O  0.03207353  0.41190684  0.12387547    -0.56600
O70         O  0.11294908  0.40558259  0.11013110    -0.55400
C71         C  0.07928688  0.42160352  0.01911322     0.78300
O72         O  0.08355842  0.39882569  0.15299291    -0.57800
O73         O  0.03246449  0.38137190  0.08659477    -0.56200
O74         O  0.11908351  0.46875879  0.09924245    -0.56200
O75         O  0.06926337  0.43497987  0.03649670    -0.55400
O76         O  0.47313771  0.38307908  0.12356006    -0.56600
C77         C  0.39675040  0.37918204  0.10973015     0.76000
O78         O  0.41985400  0.32388249  0.03718996    -0.57800
C79         C  0.48772863  0.37445846  0.10598231     0.76000
C80         C  0.40202119  0.29840720  0.14068342     0.78400
Cd81       Cd  0.42797013  0.34875481  0.09640870     1.37500
O82         O  0.42287927  0.39049240  0.11547262    -0.56600
O83         O  0.39392430  0.29984978  0.10869208    -0.55400
C84         C  0.42629483  0.34569968  0.01794517     0.78300
O85         O  0.42274941  0.32034838  0.15241593    -0.57800
O86         O  0.38508552  0.35370305  0.10046016    -0.56200
O87         O  0.47460151  0.35307974  0.08628280    -0.56200
O88         O  0.43296981  0.36828851  0.03481503    -0.55400
O89         O  0.39247668  0.42122461  0.11681871    -0.56600
C90         C  0.37544443  0.48686422  0.10681929     0.76000
O91         O  0.32689349  0.41725962  0.03800989    -0.57800
C92         C  0.38091523  0.39513605  0.11052757     0.76000
C93         C  0.30111834  0.40284683  0.14254183     0.78400
Cd94       Cd  0.35100386  0.42709642  0.09833118     1.37500
O95         O  0.38469951  0.47271119  0.12489839    -0.56600
O96         O  0.30118773  0.39639895  0.10952575    -0.55400
C97         C  0.34924586  0.42532588  0.01986807     0.78300
O98         O  0.32436943  0.42072119  0.15554111    -0.57800
O99         O  0.35417227  0.47326921  0.08699995    -0.56200
O100        O  0.35523850  0.38368172  0.10211919    -0.56200
O101        O  0.37174467  0.43383552  0.03784119    -0.55400
O102        O  0.08233103  0.11363882  0.37958379    -0.56600
C103        C  0.01418681  0.12531523  0.39310891     0.76000
O104        O  0.08364524  0.17699060  0.46394138    -0.57800
C105        C  0.10592254  0.12220800  0.39497548     0.76000
C106        C  0.09950544  0.20230531  0.36172113     0.78400
Cd107      Cd  0.07359954  0.15177604  0.40501331     1.37500
O108        O  0.02908137  0.11531456  0.37934334    -0.56600
O109        O  0.07940099  0.18020297  0.34933423    -0.55400
C110        C  0.07226890  0.15473181  0.48297473     0.78300
O111        O  0.10726879  0.20086929  0.39386735    -0.57800
O112        O  0.02692233  0.14822060  0.41010047    -0.56200
O113        O  0.11477859  0.14468491  0.41274155    -0.56200
O114        O  0.06157271  0.13173290  0.46603698    -0.55400
O115        O  0.47020531  0.08695886  0.37590447    -0.56600
C116        C  0.39463732  0.01810580  0.38802181     0.76000
O117        O  0.41474622  0.09390913  0.45889487    -0.57800
C118        C  0.48351306  0.11025236  0.39196236     0.76000
C119        C  0.39657411  0.10295667  0.35574629     0.78400
Cd120      Cd  0.42381790  0.07786136  0.39982830     1.37500
O121        O  0.42008760  0.03226089  0.37898081    -0.56600
O122        O  0.41686600  0.09981078  0.34367484    -0.55400
C123        C  0.42213557  0.07872457  0.47795603     0.78300
O124        O  0.38886827  0.09428615  0.38788920    -0.57800
O125        O  0.38251996  0.03174986  0.39927975    -0.56200
O126        O  0.46912450  0.11926099  0.40912214    -0.56200
O127        O  0.43013480  0.06344908  0.46102022    -0.55400
O128        O  0.39226782  0.47281278  0.38069293    -0.56600
C129        C  0.37973935  0.39275596  0.39178186     0.76000
O130        O  0.32746205  0.41565010  0.46092639    -0.57800
C131        C  0.38015969  0.48730881  0.38854271     0.76000
C132        C  0.30320129  0.40271530  0.35583019     0.78400
Cd133      Cd  0.35258308  0.42731854  0.40142797     1.37500
O134        O  0.38887856  0.41647939  0.37602146    -0.56600
O135        O  0.30263055  0.41135363  0.38754106    -0.55400
C136        C  0.34960695  0.42533183  0.47995309     0.78300
O137        O  0.32666018  0.40568605  0.34505878    -0.57800
O138        O  0.35744097  0.38451786  0.41006756    -0.56200
O139        O  0.35520950  0.47399213  0.39957117    -0.56200
O140        O  0.37251692  0.43538522  0.46285429    -0.55400
O141        O  0.41211984  0.03183531  0.12401485    -0.56600
C142        C  0.48000234  0.10858694  0.11128677     0.76000
O143        O  0.41175043  0.09205865  0.03540573    -0.57800
C144        C  0.38965989  0.01763404  0.10643230     0.76000
C145        C  0.39271941  0.10176842  0.13684475     0.78400
Cd146      Cd  0.42095627  0.07729916  0.09594189     1.37500
O147        O  0.46668045  0.08266975  0.11886160    -0.56600
O148        O  0.39913902  0.08385739  0.15069934    -0.55400
C149        C  0.42159429  0.07860735  0.01774748     0.78300
O150        O  0.39888174  0.10796313  0.10369037    -0.57800
O151        O  0.46581666  0.12013025  0.09942917    -0.56200
O152        O  0.38084131  0.03117855  0.08641696    -0.56200
O153        O  0.43100641  0.06481679  0.03609943    -0.55400
O154        O  0.02542932  0.11266390  0.12250485    -0.56600
C155        C  0.10177763  0.12199782  0.10735443     0.76000
O156        O  0.08455007  0.17718946  0.04118977    -0.57800
C157        C  0.01059083  0.12411523  0.11267059     0.76000
C158        C  0.09671167  0.20083899  0.14726021     0.78400
Cd159      Cd  0.07000370  0.15208873  0.10098150     1.37500
O160        O  0.07972297  0.11462445  0.12599100    -0.56600
O161        O  0.09512115  0.17734443  0.15612845    -0.55400
C162        C  0.07149946  0.15499673  0.02277422     0.78300
O163        O  0.08543078  0.20169860  0.11725090    -0.57800
O164        O  0.10975733  0.14394727  0.08788963    -0.56200
O165        O  0.02342249  0.14914534  0.10108984    -0.56200
O166        O  0.05780513  0.13242286  0.04039113    -0.55400
C167        C  0.32721624  0.16881035  0.21200887     0.46700
H168        H  0.32749246  0.16973094  0.18192674    -0.02400
C169        C  0.32732746  0.16825824  0.28268420     0.46700
H170        H  0.32730658  0.16804069  0.31296116    -0.02400
C171        C  0.34124028  0.19829386  0.22887022    -0.16100
C172        C  0.29770018  0.15381155  0.22834778    -0.15800
C173        C  0.34252564  0.15321882  0.22849487    -0.16200
C174        C  0.34095040  0.19802405  0.26631425    -0.16200
C175        C  0.29783303  0.15322334  0.26591462    -0.15700
C176        C  0.34344198  0.15392797  0.26603958    -0.16100
C177        C  0.36355169  0.10003611  0.18926350    -0.11100
C178        C  0.37887258  0.11464346  0.15864112     0.05900
C179        C  0.38080550  0.14110860  0.15000539    -0.06400
C180        C  0.36896399  0.15311068  0.17331163    -0.07100
C181        C  0.35418799  0.13882071  0.20469937    -0.01700
C182        C  0.35060379  0.11133801  0.21168391     0.05200
N183        N  0.33206225  0.09334190  0.23906244     0.67700
H184        H  0.36076977  0.07914261  0.19526414     0.16600
H185        H  0.37182238  0.17398770  0.16707776     0.16300
N186        N  0.39542168  0.15649768  0.11834879     0.75400
O187        O  0.34181449  0.08345532  0.26328526    -0.38100
O188        O  0.30655800  0.07936788  0.23081687    -0.38000
O189        O  0.38175735  0.15743796  0.09076359    -0.38700
O190        O  0.42140543  0.17275264  0.12012290    -0.38800
C191        C  0.34347072  0.12500344  0.31903260    -0.11100
C192        C  0.35823570  0.14251458  0.28978182     0.05900
C193        C  0.38623427  0.14825392  0.28368087    -0.06400
C194        C  0.39801853  0.13461015  0.30493879    -0.07100
C195        C  0.38297165  0.11644110  0.33362351    -0.01700
C196        C  0.35555714  0.11210543  0.34100425     0.05200
N197        N  0.33911138  0.09361593  0.36953378     0.67700
H198        H  0.32205648  0.12050727  0.32412823     0.16600
H199        H  0.41939841  0.13902973  0.29979449     0.16300
N200        N  0.40348589  0.16900083  0.25761363     0.75400
O201        O  0.33721811  0.10372444  0.39961244    -0.38100
O202        O  0.32205280  0.06849393  0.36216714    -0.38000
O203        O  0.41055856  0.19453327  0.26330816    -0.38700
O204        O  0.41636608  0.16274753  0.23380613    -0.38800
C205        C  0.35917821  0.25400876  0.15486106    -0.11100
C206        C  0.38730087  0.27256386  0.16307533     0.05900
C207        C  0.40021928  0.26633263  0.19287710    -0.06400
C208        C  0.38504832  0.24190355  0.21361294    -0.07100
C209        C  0.35672078  0.22387731  0.20604080    -0.01700
C210        C  0.34377923  0.23003399  0.17629503     0.05200
N211        N  0.31455660  0.21324427  0.16893672     0.67700
H212        H  0.34878975  0.25863049  0.13265996     0.16600
H213        H  0.39540443  0.23705592  0.23561667     0.16300
N214        N  0.42884478  0.28423408  0.20214782     0.75400
O215        O  0.30688731  0.19884394  0.14027386    -0.38100
O216        O  0.29689166  0.21736438  0.18670748    -0.38000
O217        O  0.43458623  0.29943543  0.23005541    -0.38700
O218        O  0.44791506  0.28081494  0.18691474    -0.38800
C219        C  0.22870707  0.09994591  0.30780287    -0.11100
C220        C  0.22494352  0.11594839  0.33488911     0.05900
C221        C  0.24522431  0.14428558  0.33910774    -0.06400
C222        C  0.26877351  0.15589864  0.31638722    -0.07100
C223        C  0.27259040  0.13974486  0.28944143    -0.01700
C224        C  0.25243076  0.11133078  0.28564518     0.05200
N225        N  0.25711079  0.09283040  0.26255212     0.67700
H226        H  0.21371200  0.07788136  0.30490573     0.16600
H227        H  0.28400716  0.17786941  0.31944260     0.16300
N228        N  0.24157540  0.16188283  0.36505931     0.75400
O229        O  0.27050453  0.08088226  0.27569342    -0.38100
O230        O  0.24049377  0.08139294  0.23635350    -0.38000
O231        O  0.25682251  0.16940737  0.39318342    -0.38700
O232        O  0.22743862  0.17427721  0.35637550    -0.38800
C233        C  0.36765735  0.27179228  0.30511200    -0.11100
C234        C  0.38631752  0.27194747  0.33210117     0.05900
C235        C  0.38901213  0.24733188  0.33809336    -0.06400
C236        C  0.37361697  0.22351198  0.31681779    -0.07100
C237        C  0.35505223  0.22338423  0.28974148    -0.01700
C238        C  0.35151353  0.24764779  0.28464840     0.05200
N239        N  0.33062113  0.24772312  0.26042628     0.67700
H240        H  0.36462387  0.29012464  0.30100197     0.16600
H241        H  0.37676654  0.20524710  0.32091653     0.16300
N242        N  0.40800943  0.24639723  0.36475418     0.75400
O243        O  0.33689668  0.26794965  0.23836779    -0.38100
O244        O  0.30514544  0.23096682  0.26625692    -0.38000
O245        O  0.39853145  0.23127689  0.39291641    -0.38700
O246        O  0.43359789  0.25609568  0.35690864    -0.38800
C247        C  0.24450909  0.11363972  0.15436019    -0.11100
C248        C  0.22122892  0.11660703  0.16533286     0.05900
C249        C  0.22377462  0.13349992  0.19566038    -0.06400
C250        C  0.24921644  0.14650303  0.21471914    -0.07100
C251        C  0.27201017  0.14200453  0.20511846    -0.01700
C252        C  0.26961082  0.12587943  0.17385696     0.05200
N253        N  0.29145152  0.11972824  0.16263889     0.67700
H254        H  0.24300468  0.10083859  0.13123653     0.16600
H255        H  0.25095953  0.15978096  0.23733502     0.16300
N256        N  0.20095858  0.13795677  0.20732952     0.75400
O257        O  0.28942632  0.09605218  0.17093241    -0.38100
O258        O  0.30598725  0.13257963  0.13526997    -0.39800
O259        O  0.18654798  0.12433684  0.23439725    -0.38700
O260        O  0.19915317  0.15928853  0.19596830    -0.38800
C261        C  0.15694111  0.37442646  0.18097878    -0.11100
C262        C  0.14134024  0.35607723  0.20910610     0.05900
C263        C  0.11318625  0.35022734  0.21413222    -0.06400
C264        C  0.10191816  0.36416488  0.19252122    -0.07100
C265        C  0.11764312  0.38280457  0.16461765    -0.01700
C266        C  0.14536299  0.38760060  0.15862117     0.05200
N267        N  0.16241853  0.40649430  0.13079445     0.67700
H268        H  0.17854653  0.37906014  0.17678599     0.16600
H269        H  0.08032718  0.35954955  0.19671163     0.16300
N270        N  0.09536340  0.32932493  0.23967840     0.75400
O271        O  0.17592141  0.43242152  0.13734481    -0.38100
O272        O  0.16798158  0.39687118  0.10257682    -0.38000
O273        O  0.08072035  0.33494249  0.26148968    -0.38700
O274        O  0.08999593  0.30405960  0.23547395    -0.38800
C275        C  0.25445464  0.36265499  0.15464702    -0.11100
C276        C  0.27521699  0.38945535  0.16456792     0.05900
C277        C  0.27089233  0.40233443  0.19540706    -0.06400
C278        C  0.24618528  0.38828409  0.21563592    -0.07100
C279        C  0.22620475  0.36068015  0.20709618    -0.01700
C280        C  0.23035141  0.34809112  0.17575696     0.05200
N281        N  0.21185583  0.31958458  0.16671244     0.67700
H282        H  0.25750798  0.35234587  0.13142748     0.16600
H283        H  0.24294580  0.39882119  0.23839519     0.16300
N284        N  0.29128237  0.42965751  0.20663659     0.75400
O285        O  0.21792696  0.30079237  0.17768195    -0.38100
O286        O  0.19560689  0.31453536  0.13974940    -0.38000
O287        O  0.28928583  0.45096965  0.19565291    -0.38700
O288        O  0.30757270  0.43199442  0.23273984    -0.38800
C289        C  0.14913403  0.38670062  0.28427472    -0.11100
C290        C  0.14424974  0.35927118  0.29312747     0.05900
C291        C  0.12746267  0.34565444  0.32370579    -0.06400
C292        C  0.11606980  0.35942033  0.34460185    -0.07100
C293        C  0.12028518  0.38643750  0.33517827    -0.01700
C294        C  0.13704277  0.40016631  0.30466838     0.05200
N295        N  0.14245154  0.42797870  0.29451752     0.67700
H296        H  0.16245748  0.39778098  0.26144958     0.16600
H297        H  0.10277096  0.34833321  0.36746279     0.16300
N298        N  0.11944477  0.31690553  0.33196489     0.75400
O299        O  0.15735274  0.44845813  0.31469814    -0.38100
O300        O  0.13096056  0.43187355  0.26648756    -0.38000
O301        O  0.12907828  0.31091620  0.36026383    -0.38700
O302        O  0.09749802  0.29814168  0.31751298    -0.38800
C303        C  0.27586156  0.36903337  0.30743007    -0.11100
C304        C  0.27772083  0.38902529  0.33297537     0.05900
C305        C  0.25484147  0.39467264  0.33706715    -0.06400
C306        C  0.23043817  0.37981969  0.31648907    -0.07100
C307        C  0.22848169  0.35966002  0.29115907    -0.01700
C308        C  0.25152709  0.35422259  0.28670493     0.05200
N309        N  0.25056729  0.33349586  0.26185157     0.67700
H310        H  0.29313089  0.36429606  0.30418193     0.16600
H311        H  0.21323792  0.38470526  0.31947456     0.16300
N312        N  0.25666004  0.41658224  0.36032648     0.75400
O313        O  0.26858923  0.34069775  0.23684021    -0.38100
O314        O  0.23693053  0.30785295  0.27031891    -0.38000
O315        O  0.26662708  0.44137104  0.34801985    -0.38700
O316        O  0.24381101  0.41045281  0.39032362    -0.38800
C317        C  0.13236890  0.22688925  0.19469503    -0.11100
C318        C  0.11179545  0.22601292  0.17025857     0.05900
C319        C  0.10693383  0.24956838  0.16741089    -0.06400
C320        C  0.12298503  0.27352321  0.18801851    -0.07100
C321        C  0.14361987  0.27447640  0.21229111    -0.01700
C322        C  0.14831962  0.25080274  0.21559279     0.05200
N323        N  0.16958881  0.25074713  0.23907262     0.67700
H324        H  0.13658392  0.20918466  0.19703489     0.16600
H325        H  0.11881603  0.29123045  0.18562284     0.16300
N326        N  0.08496704  0.24915237  0.14500197     0.75400
O327        O  0.16234472  0.23463764  0.26655222    -0.38100
O328        O  0.19393877  0.25922370  0.22661988    -0.38000
O329        O  0.06121725  0.24196400  0.15883810    -0.38700
O330        O  0.09084871  0.26155813  0.11447814    -0.38800
C331        C  0.14180575  0.24716821  0.34823453    -0.11100
C332        C  0.11390792  0.22826250  0.33976319     0.05900
C333        C  0.10082938  0.23416422  0.30995793    -0.06400
C334        C  0.11603205  0.25801302  0.28843279    -0.07100
C335        C  0.14428387  0.27634799  0.29595948    -0.01700
C336        C  0.15702492  0.27113084  0.32678557     0.05200
N337        N  0.18589064  0.28863015  0.33532600     0.67700
H338        H  0.15217268  0.24295148  0.37096705     0.16600
H339        H  0.10549190  0.26248530  0.26617838     0.16300
N340        N  0.07181545  0.21690229  0.30209401     0.75400
O341        O  0.20331186  0.27998780  0.32776319    -0.38100
O342        O  0.19216597  0.30706880  0.35955733    -0.38000
O343        O  0.05375382  0.22165297  0.31783947    -0.38700
O344        O  0.06479008  0.20116759  0.27462096    -0.38800
C345        C  0.17346346  0.33112209  0.78697834     0.46700
H346        H  0.17435230  0.33218806  0.81709290    -0.02400
C347        C  0.17151278  0.32953050  0.71632707     0.46700
H348        H  0.17024309  0.32899758  0.68618217    -0.02400
C349        C  0.15669103  0.34510275  0.77028828    -0.16100
C350        C  0.20249031  0.34573618  0.76890750    -0.15800
C351        C  0.15960030  0.30113921  0.77186701    -0.16200
C352        C  0.15550966  0.34395990  0.73286415    -0.16200
C353        C  0.20148277  0.34536638  0.73138995    -0.15700
C354        C  0.15882504  0.30029941  0.73436001    -0.16100
O355        O  0.10919448  0.08301883  0.62520808    -0.56600
C356        C  0.12044374  0.01247959  0.61264842     0.76000
O357        O  0.17212545  0.08382531  0.54203698    -0.57800
C358        C  0.11694743  0.10545853  0.60674403     0.76000
C359        C  0.19502012  0.10165526  0.64426132     0.78400
Cd360      Cd  0.14571159  0.07237175  0.60021215     1.37500
O361        O  0.10746840  0.02611374  0.62066159    -0.56600
O362        O  0.17107256  0.09506466  0.65727597    -0.55400
C363        C  0.15039737  0.07270406  0.52229030     0.78300
O364        O  0.19558046  0.09419126  0.61189911    -0.57800
O365        O  0.14556954  0.02669126  0.60260062    -0.56200
O366        O  0.13802251  0.11262289  0.58636871    -0.56200
O367        O  0.12705431  0.06178323  0.53848082    -0.55400
O368        O  0.41829646  0.38490686  0.87479838    -0.56600
C369        C  0.48821565  0.37559709  0.88781800     0.76000
O370        O  0.41801998  0.32293929  0.95998531    -0.57800
C371        C  0.39509171  0.37629272  0.89115597     0.76000
C372        C  0.40135950  0.29746968  0.85462093     0.78400
Cd373      Cd  0.42820026  0.34733517  0.89945957     1.37500
O374        O  0.47310409  0.38621509  0.87606550    -0.56600
O375        O  0.40594250  0.32149772  0.84310198    -0.55400
C376        C  0.42648593  0.34537311  0.97803313     0.78300
O377        O  0.40965954  0.29649081  0.88667010    -0.57800
O378        O  0.47551933  0.35134422  0.90187859    -0.56200
O379        O  0.38643575  0.35347259  0.90892931    -0.56200
O380        O  0.43544554  0.36799742  0.95994836    -0.55400
O381        O  0.11524037  0.02905070  0.87965053    -0.56600
C382        C  0.12180513  0.10637826  0.89468423     0.76000
O383        O  0.17456534  0.08222180  0.96513990    -0.57800
C384        C  0.12571995  0.01430380  0.89334583     0.76000
C385        C  0.20022115  0.10209491  0.85879607     0.78400
Cd386      Cd  0.15134364  0.07410441  0.90438019     1.37500
O387        O  0.11287177  0.08270647  0.87953427    -0.56600
O388        O  0.20062154  0.10890509  0.89172877    -0.55400
C389        C  0.15168063  0.07274908  0.98250059     0.78300
O390        O  0.17757513  0.08213456  0.84740988    -0.57800
O391        O  0.14472126  0.11536912  0.91173716    -0.56200
O392        O  0.14894750  0.02734790  0.90977867    -0.56200
O393        O  0.12944282  0.06346614  0.96385285    -0.55400
O394        O  0.03231359  0.41642449  0.87711878    -0.56600
C395        C  0.11077149  0.48345910  0.89264984     0.76000
O396        O  0.09089667  0.41022660  0.96095310    -0.57800
C397        C  0.01895739  0.39122301  0.88816118     0.76000
C398        C  0.10629284  0.39925412  0.85701862     0.78400
Cd399      Cd  0.07869938  0.42329505  0.90080700     1.37500
O400        O  0.08693478  0.47008543  0.87774749    -0.56600
O401        O  0.09911501  0.41676972  0.84367216    -0.55400
C402        C  0.07932799  0.42177474  0.97922149     0.78300
O403        O  0.10047140  0.39282446  0.89022509    -0.57800
O404        O  0.12040452  0.46897627  0.90904048    -0.56200
O405        O  0.03332677  0.38057271  0.90216647    -0.56200
O406        O  0.06766892  0.43371426  0.96139420    -0.55400
O407        O  0.08113575  0.46692467  0.62019344    -0.56600
C408        C  0.01843043  0.38947064  0.60614487     0.76000
O409        O  0.08908064  0.40825348  0.53782419    -0.57800
C410        C  0.10658056  0.48169866  0.61161532     0.76000
C411        C  0.10438937  0.39627021  0.64183587     0.78400
Cd412      Cd  0.07804085  0.42211131  0.59752264     1.37500
O413        O  0.03207368  0.41190688  0.62387546    -0.56600
O414        O  0.11294921  0.40558261  0.61013094    -0.55400
C415        C  0.07928689  0.42160349  0.51911319     0.78300
O416        O  0.08355860  0.39882574  0.65299280    -0.57800
O417        O  0.03246463  0.38137194  0.58659475    -0.56200
O418        O  0.11908366  0.46875884  0.59924229    -0.56200
O419        O  0.06926331  0.43497979  0.53649668    -0.55400
O420        O  0.47313793  0.38307913  0.62356014    -0.56600
C421        C  0.39675054  0.37918202  0.60973011     0.76000
O422        O  0.41985413  0.32388250  0.53719004    -0.57800
C423        C  0.48772886  0.37445855  0.60598232     0.76000
C424        C  0.40202151  0.29840723  0.64068341     0.78400
Cd425      Cd  0.42797036  0.34875486  0.59640874     1.37500
O426        O  0.42287938  0.39049236  0.61547280    -0.56600
O427        O  0.39392466  0.29984982  0.60869206    -0.55400
C428        C  0.42629506  0.34569970  0.51794522     0.78300
O429        O  0.42274969  0.32034843  0.65241597    -0.57800
O430        O  0.38508571  0.35370308  0.60045993    -0.56200
O431        O  0.47460176  0.35307987  0.58628274    -0.56200
O432        O  0.43297017  0.36828857  0.53481505    -0.55400
O433        O  0.39247677  0.42122456  0.61681881    -0.56600
C434        C  0.37544459  0.48686425  0.60681922     0.76000
O435        O  0.32689359  0.41725951  0.53800983    -0.57800
C436        C  0.38091535  0.39513603  0.61052748     0.76000
C437        C  0.30111852  0.40284698  0.64254181     0.78400
Cd438      Cd  0.35100401  0.42709645  0.59833110     1.37500
O439        O  0.38469972  0.47271122  0.62489823    -0.56600
O440        O  0.30118789  0.39639909  0.60952573    -0.55400
C441        C  0.34924597  0.42532591  0.51986797     0.78300
O442        O  0.32436964  0.42072130  0.65554109    -0.57800
O443        O  0.35417239  0.47326924  0.58699994    -0.56200
O444        O  0.35523866  0.38368174  0.60211890    -0.56200
O445        O  0.37174481  0.43383571  0.53784106    -0.55400
O446        O  0.08233120  0.11363894  0.87958342    -0.56600
C447        C  0.01418687  0.12531519  0.89310885     0.76000
O448        O  0.08364504  0.17699060  0.96394114    -0.57800
C449        C  0.10592268  0.12220809  0.89497521     0.76000
C450        C  0.09950556  0.20230537  0.86172093     0.78400
Cd451      Cd  0.07359963  0.15177606  0.90501307     1.37500
O452        O  0.02908143  0.11531454  0.87934320    -0.56600
O453        O  0.07940104  0.18020307  0.84933405    -0.55400
C454        C  0.07226903  0.15473180  0.98297449     0.78300
O455        O  0.10726896  0.20086928  0.89386709    -0.57800
O456        O  0.02692242  0.14822055  0.91010043    -0.56200
O457        O  0.11477867  0.14468496  0.91274135    -0.56200
O458        O  0.06157316  0.13173288  0.96603674    -0.55400
O459        O  0.47020529  0.08695880  0.87590459    -0.56600
C460        C  0.39463728  0.01810583  0.88802201     0.76000
O461        O  0.41474622  0.09390917  0.95889490    -0.57800
C462        C  0.48351306  0.11025231  0.89196243     0.76000
C463        C  0.39657416  0.10295675  0.85574643     0.78400
Cd464      Cd  0.42381791  0.07786139  0.89982837     1.37500
O465        O  0.42008748  0.03226092  0.87898064    -0.56600
O466        O  0.41686606  0.09981089  0.84367499    -0.55400
C467        C  0.42213558  0.07872461  0.97795607     0.78300
O468        O  0.38886827  0.09428616  0.88788931    -0.57800
O469        O  0.38252000  0.03174989  0.89928024    -0.56200
O470        O  0.46912453  0.11926098  0.90912219    -0.56200
O471        O  0.43013485  0.06344915  0.96102027    -0.55400
O472        O  0.39226803  0.47281289  0.88069330    -0.56600
C473        C  0.37973934  0.39275607  0.89178186     0.76000
O474        O  0.32746202  0.41565022  0.96092645    -0.57800
C475        C  0.38015987  0.48730895  0.88854280     0.76000
C476        C  0.30320139  0.40271550  0.85583029     0.78400
Cd477      Cd  0.35258314  0.42731868  0.90142809     1.37500
O478        O  0.38887854  0.41647949  0.87602144    -0.56600
O479        O  0.30263068  0.41135404  0.88754104    -0.55400
C480        C  0.34960689  0.42533186  0.97995319     0.78300
O481        O  0.32666023  0.40568604  0.84505901    -0.57800
O482        O  0.35744100  0.38451799  0.91006765    -0.56200
O483        O  0.35520961  0.47399229  0.89957101    -0.56200
O484        O  0.37251688  0.43538521  0.96285444    -0.55400
O485        O  0.41212013  0.03183544  0.62401479    -0.56600
C486        C  0.48000257  0.10858708  0.61128678     0.76000
O487        O  0.41175060  0.09205874  0.53540573    -0.57800
C488        C  0.38966008  0.01763420  0.60643240     0.76000
C489        C  0.39271973  0.10176858  0.63684493     0.78400
Cd490      Cd  0.42095650  0.07729930  0.59594191     1.37500
O491        O  0.46668069  0.08266987  0.61886154    -0.56600
O492        O  0.39913938  0.08385756  0.65069948    -0.55400
C493        C  0.42159436  0.07860737  0.51774746     0.78300
O494        O  0.39888198  0.10796325  0.60369052    -0.57800
O495        O  0.46581688  0.12013039  0.59942921    -0.56200
O496        O  0.38084143  0.03117873  0.58641723    -0.56200
O497        O  0.43100648  0.06481680  0.53609940    -0.55400
O498        O  0.02542941  0.11266380  0.62250485    -0.56600
C499        C  0.10177771  0.12199785  0.60735454     0.76000
O500        O  0.08455031  0.17718944  0.54119000    -0.57800
C501        C  0.01059092  0.12411523  0.61267093     0.76000
C502        C  0.09671183  0.20083909  0.64726033     0.78400
Cd503      Cd  0.07000377  0.15208876  0.60098174     1.37500
O504        O  0.07972323  0.11462464  0.62599144    -0.56600
O505        O  0.09512135  0.17734454  0.65612860    -0.55400
C506        C  0.07149936  0.15499677  0.52277446     0.78300
O507        O  0.08543085  0.20169864  0.61725108    -0.57800
O508        O  0.10975723  0.14394713  0.58788945    -0.56200
O509        O  0.02342259  0.14914543  0.60109054    -0.56200
O510        O  0.05780476  0.13242296  0.54039138    -0.55400
C511        C  0.32721642  0.16881039  0.71200888     0.46700
H512        H  0.32749266  0.16973093  0.68192676    -0.02400
C513        C  0.32732761  0.16825838  0.78268421     0.46700
H514        H  0.32730672  0.16804086  0.81296117    -0.02400
C515        C  0.34124049  0.19829392  0.72887016    -0.16100
C516        C  0.29770035  0.15381165  0.72834777    -0.15800
C517        C  0.34252579  0.15321886  0.72849497    -0.16200
C518        C  0.34095058  0.19802416  0.76631419    -0.16200
C519        C  0.29783318  0.15322347  0.76591462    -0.15700
C520        C  0.34344210  0.15392807  0.76603967    -0.16100
C521        C  0.36355200  0.10003623  0.68926369    -0.11100
C522        C  0.37887292  0.11464362  0.65864135     0.05900
C523        C  0.38080587  0.14110877  0.65000567    -0.06400
C524        C  0.36896429  0.15311081  0.67331186    -0.07100
C525        C  0.35418823  0.13882079  0.70469954    -0.01700
C526        C  0.35060405  0.11133809  0.71168408     0.05200
N527        N  0.33206247  0.09334195  0.73906255     0.67700
H528        H  0.36077007  0.07914273  0.69526430     0.16600
H529        H  0.37182270  0.17398783  0.66707802     0.16300
N530        N  0.39542216  0.15649792  0.61834916     0.75400
O531        O  0.34181473  0.08345550  0.76328551    -0.38100
O532        O  0.30655827  0.07936774  0.73081681    -0.38000
O533        O  0.38175793  0.15743835  0.59076394    -0.38700
O534        O  0.42140593  0.17275275  0.62012337    -0.38800
C535        C  0.34347079  0.12500355  0.81903273    -0.11100
C536        C  0.35823581  0.14251471  0.78978198     0.05900
C537        C  0.38623440  0.14825411  0.78368111    -0.06400
C538        C  0.39801866  0.13461033  0.80493904    -0.07100
C539        C  0.38297173  0.11644123  0.83362369    -0.01700
C540        C  0.35555721  0.11210555  0.84100440     0.05200
N541        N  0.33911142  0.09361601  0.86953389     0.67700
H542        H  0.32205661  0.12050738  0.82412830     0.16600
H543        H  0.41939849  0.13902993  0.79979480     0.16300
N544        N  0.40348605  0.16900108  0.75761395     0.75400
O545        O  0.33721804  0.10372450  0.89961251    -0.38100
O546        O  0.32205293  0.06849400  0.86216723    -0.38000
O547        O  0.41055863  0.19453349  0.76330851    -0.38700
O548        O  0.41636634  0.16274786  0.73380650    -0.38800
C549        C  0.35917852  0.25400880  0.65486094    -0.11100
C550        C  0.38730120  0.27256387  0.66307528     0.05900
C551        C  0.40021957  0.26633262  0.69287703    -0.06400
C552        C  0.38504860  0.24190353  0.71361289    -0.07100
C553        C  0.35672104  0.22387733  0.70604070    -0.01700
C554        C  0.34377954  0.23003402  0.67629490     0.05200
N555        N  0.31455691  0.21324431  0.66893653     0.67700
H556        H  0.34879017  0.25863051  0.63266000     0.16600
H557        H  0.39540459  0.23705593  0.73561645     0.16300
N558        N  0.42884509  0.28423403  0.70214777     0.75400
O559        O  0.30688767  0.19884369  0.64027391    -0.38100
O560        O  0.29689198  0.21736476  0.68670683    -0.38000
O561        O  0.43458654  0.29943542  0.73005532    -0.38700
O562        O  0.44791534  0.28081477  0.68691482    -0.38800
C563        C  0.22870715  0.09994610  0.80780276    -0.11100
C564        C  0.22494371  0.11594850  0.83488922     0.05900
C565        C  0.24522462  0.14428564  0.83910802    -0.06400
C566        C  0.26877378  0.15589871  0.81638744    -0.07100
C567        C  0.27259055  0.13974500  0.78944143    -0.01700
C568        C  0.25243082  0.11133096  0.78564503     0.05200
N569        N  0.25711072  0.09283061  0.76255177     0.67700
H570        H  0.21371199  0.07788156  0.80490549     0.16600
H571        H  0.28400753  0.17786945  0.81944296     0.16300
N572        N  0.24157590  0.16188281  0.86505989     0.75400
O573        O  0.27050472  0.08088263  0.77569272    -0.38100
O574        O  0.24049348  0.08139305  0.73635340    -0.38000
O575        O  0.25682321  0.16940729  0.89318382    -0.38700
O576        O  0.22743903  0.17427719  0.85637650    -0.38800
C577        C  0.36765750  0.27179245  0.80511178    -0.11100
C578        C  0.38631764  0.27194765  0.83210102     0.05900
C579        C  0.38901228  0.24733208  0.83809325    -0.06400
C580        C  0.37361714  0.22351215  0.81681770    -0.07100
C581        C  0.35505241  0.22338438  0.78974136    -0.01700
C582        C  0.35151372  0.24764794  0.78464820     0.05200
N583        N  0.33062136  0.24772325  0.76042599     0.67700
H584        H  0.36462403  0.29012474  0.80100171     0.16600
H585        H  0.37676672  0.20524732  0.82091649     0.16300
N586        N  0.40800958  0.24639747  0.86475409     0.75400
O587        O  0.33689693  0.26794976  0.73836747    -0.38100
O588        O  0.30514565  0.23096694  0.76625655    -0.38000
O589        O  0.39853160  0.23127744  0.89291657    -0.38700
O590        O  0.43359797  0.25609561  0.85690841    -0.38800
C591        C  0.24450928  0.11363990  0.65436010    -0.11100
C592        C  0.22122913  0.11660726  0.66533275     0.05900
C593        C  0.22377484  0.13350015  0.69566026    -0.06400
C594        C  0.24921664  0.14650321  0.71471907    -0.07100
C595        C  0.27201035  0.14200466  0.70511842    -0.01700
C596        C  0.26961100  0.12587958  0.67385692     0.05200
N597        N  0.29145167  0.11972831  0.66263891     0.67700
H598        H  0.24300487  0.10083879  0.63123650     0.16600
H599        H  0.25095974  0.15978112  0.73733491     0.16300
N600        N  0.20095883  0.13795707  0.70732934     0.75400
O601        O  0.28942649  0.09605230  0.67093266    -0.38100
O602        O  0.30598738  0.13257959  0.63526992    -0.39800
O603        O  0.18654837  0.12433740  0.73439730    -0.38700
O604        O  0.19915331  0.15928869  0.69596775    -0.38800
C605        C  0.15694131  0.37442662  0.68097871    -0.11100
C606        C  0.14134044  0.35607733  0.70910595     0.05900
C607        C  0.11318639  0.35022732  0.71413197    -0.06400
C608        C  0.10191832  0.36416484  0.69252095    -0.07100
C609        C  0.11764328  0.38280461  0.66461746    -0.01700
C610        C  0.14536319  0.38760073  0.65862106     0.05200
N611        N  0.16241874  0.40649449  0.63079441     0.67700
H612        H  0.17854696  0.37906042  0.67678595     0.16600
H613        H  0.08032710  0.35954939  0.69671133     0.16300
N614        N  0.09536355  0.32932484  0.73967806     0.75400
O615        O  0.17592171  0.43242168  0.63734491    -0.38100
O616        O  0.16798174  0.39687143  0.60257668    -0.38000
O617        O  0.08072045  0.33494232  0.76148936    -0.38700
O618        O  0.08999613  0.30405953  0.73547353    -0.38800
C619        C  0.25445490  0.36265508  0.65464706    -0.11100
C620        C  0.27521719  0.38945552  0.66456795     0.05900
C621        C  0.27089249  0.40233463  0.69540697    -0.06400
C622        C  0.24618546  0.38828431  0.71563597    -0.07100
C623        C  0.22620498  0.36068031  0.70709621    -0.01700
C624        C  0.23035168  0.34809125  0.67575709     0.05200
N625        N  0.21185617  0.31958465  0.66671266     0.67700
H626        H  0.25750822  0.35234614  0.63142807     0.16600
H627        H  0.24294602  0.39882120  0.73839467     0.16300
N628        N  0.29128245  0.42965783  0.70663635     0.75400
O629        O  0.21792758  0.30079258  0.67768189    -0.38100
O630        O  0.19560706  0.31453535  0.63974980    -0.38000
O631        O  0.28928593  0.45096987  0.69565219    -0.38700
O632        O  0.30757265  0.43199494  0.73273984    -0.38800
C633        C  0.14913397  0.38670071  0.78427447    -0.11100
C634        C  0.14424983  0.35927133  0.79312732     0.05900
C635        C  0.12746283  0.34565464  0.82370572    -0.06400
C636        C  0.11606996  0.35942054  0.84460174    -0.07100
C637        C  0.12028522  0.38643765  0.83517808    -0.01700
C638        C  0.13704268  0.40016640  0.80466806     0.05200
N639        N  0.14245127  0.42797870  0.79451702     0.67700
H640        H  0.16245745  0.39778113  0.76144910     0.16600
H641        H  0.10277112  0.34833339  0.86746289     0.16300
N642        N  0.11944500  0.31690576  0.83196490     0.75400
O643        O  0.15735250  0.44845825  0.81469743    -0.38100
O644        O  0.13096009  0.43187333  0.76648711    -0.38000
O645        O  0.12907845  0.31091650  0.86026395    -0.38700
O646        O  0.09749834  0.29814185  0.81751290    -0.38800
C647        C  0.27586163  0.36903349  0.80743027    -0.11100
C648        C  0.27772095  0.38902550  0.83297545     0.05900
C649        C  0.25484163  0.39467295  0.83706707    -0.06400
C650        C  0.23043834  0.37981999  0.81648898    -0.07100
C651        C  0.22848183  0.35966023  0.79115910    -0.01700
C652        C  0.25152719  0.35422273  0.78670509     0.05200
N653        N  0.25056739  0.33349594  0.76185181     0.67700
H654        H  0.29313097  0.36429610  0.80418223     0.16600
H655        H  0.21323809  0.38470562  0.81947435     0.16300
N656        N  0.25666025  0.41658265  0.86032623     0.75400
O657        O  0.26858928  0.34069782  0.73684038    -0.38100
O658        O  0.23693076  0.30785307  0.77031932    -0.38000
O659        O  0.26662714  0.44137137  0.84801936    -0.38700
O660        O  0.24381137  0.41045335  0.89032348    -0.38800
C661        C  0.13236917  0.22688945  0.69469501    -0.11100
C662        C  0.11179566  0.22601304  0.67025862     0.05900
C663        C  0.10693403  0.24956851  0.66741092    -0.06400
C664        C  0.12298527  0.27352332  0.68801850    -0.07100
C665        C  0.14362012  0.27447658  0.71229108    -0.01700
C666        C  0.14831991  0.25080293  0.71559274     0.05200
N667        N  0.16958917  0.25074739  0.73907248     0.67700
H668        H  0.13658425  0.20918466  0.69703490     0.16600
H669        H  0.11881622  0.29123080  0.68562277     0.16300
N670        N  0.08496721  0.24915246  0.64500206     0.75400
O671        O  0.16234515  0.23463804  0.76655223    -0.38100
O672        O  0.19393904  0.25922376  0.72661955    -0.38000
O673        O  0.06121745  0.24196412  0.65883825    -0.38700
O674        O  0.09084884  0.26155820  0.61447821    -0.38800
C675        C  0.14180587  0.24716830  0.84823445    -0.11100
C676        C  0.11390804  0.22826259  0.83976303     0.05900
C677        C  0.10082953  0.23416433  0.80995777    -0.06400
C678        C  0.11603220  0.25801316  0.78843264    -0.07100
C679        C  0.14428402  0.27634815  0.79595944    -0.01700
C680        C  0.15702503  0.27113097  0.82678553     0.05200
N681        N  0.18589074  0.28863028  0.83532604     0.67700
H682        H  0.15217271  0.24295159  0.87096682     0.16600
H683        H  0.10549216  0.26248542  0.76617839     0.16300
N684        N  0.07181560  0.21690241  0.80209379     0.75400
O685        O  0.20331196  0.27998788  0.82776343    -0.38100
O686        O  0.19216603  0.30706898  0.85955729    -0.38000
O687        O  0.05375393  0.22165281  0.81783963    -0.38700
O688        O  0.06479026  0.20116802  0.77462043    -0.38800
C689        C  0.17346331  0.83112188  0.28697841     0.46700
H690        H  0.17435217  0.83218787  0.31709296    -0.02400
C691        C  0.17151254  0.82953028  0.21632715     0.46700
H692        H  0.17024280  0.82899735  0.18618223    -0.02400
C693        C  0.15669087  0.84510255  0.27028839    -0.16100
C694        C  0.20249014  0.84573596  0.26890751    -0.15800
C695        C  0.15960012  0.80113901  0.27186710    -0.16200
C696        C  0.15550945  0.84395969  0.23286427    -0.16200
C697        C  0.20148255  0.84536615  0.23138996    -0.15700
C698        C  0.15882482  0.80029920  0.23436010    -0.16100
O699        O  0.10919426  0.58301860  0.12520782    -0.56600
C700        C  0.12044360  0.51247943  0.11264827     0.76000
O701        O  0.17212543  0.58382511  0.04203702    -0.57800
C702        C  0.11694739  0.60545845  0.10674406     0.76000
C703        C  0.19501993  0.60165496  0.14426147     0.78400
Cd704      Cd  0.14571149  0.57237161  0.10021213     1.37500
O705        O  0.10746830  0.52611359  0.12066158    -0.56600
O706        O  0.17107236  0.59506437  0.15727606    -0.55400
C707        C  0.15039737  0.57270411  0.02229028     0.78300
O708        O  0.19558031  0.59419103  0.11189924    -0.57800
O709        O  0.14556937  0.52669110  0.10260035    -0.56200
O710        O  0.13802264  0.61262296  0.08636903    -0.56200
O711        O  0.12705430  0.56178346  0.03848073    -0.55400
O712        O  0.41829644  0.88490676  0.37479810    -0.56600
C713        C  0.48821559  0.87559695  0.38781777     0.76000
O714        O  0.41801980  0.82293923  0.45998524    -0.57800
C715        C  0.39509171  0.87629268  0.39115574     0.76000
C716        C  0.40135939  0.79746956  0.35462087     0.78400
Cd717      Cd  0.42820021  0.84733509  0.39945946     1.37500
O718        O  0.47310405  0.88621501  0.37606543    -0.56600
O719        O  0.40594214  0.82149755  0.34310202    -0.55400
C720        C  0.42648591  0.84537307  0.47803304     0.78300
O721        O  0.40965971  0.79649075  0.38666990    -0.57800
O722        O  0.47551926  0.85134403  0.40187822    -0.56200
O723        O  0.38643576  0.85347260  0.40892919    -0.56200
O724        O  0.43544566  0.86799739  0.45994824    -0.55400
O725        O  0.11524030  0.52905059  0.37965050    -0.56600
C726        C  0.12180507  0.60637811  0.39468445     0.76000
O727        O  0.17456534  0.58222147  0.46513994    -0.57800
C728        C  0.12571986  0.51430367  0.39334577     0.76000
C729        C  0.20022099  0.60209478  0.35879602     0.78400
Cd730      Cd  0.15134357  0.57410425  0.40438028     1.37500
O731        O  0.11287160  0.58270624  0.37953466    -0.56600
O732        O  0.20062138  0.60890507  0.39172867    -0.55400
C733        C  0.15168066  0.57274889  0.48250068     0.78300
O734        O  0.17757502  0.58213432  0.34740993    -0.57800
O735        O  0.14472130  0.61536903  0.41173717    -0.56200
O736        O  0.14894740  0.52734774  0.40977864    -0.56200
O737        O  0.12944284  0.56346608  0.46385299    -0.55400
O738        O  0.03231360  0.91642434  0.37711876    -0.56600
C739        C  0.11077141  0.98345899  0.39264991     0.76000
O740        O  0.09089664  0.91022650  0.46095326    -0.57800
C741        C  0.01895738  0.89122289  0.38816128     0.76000
C742        C  0.10629282  0.89925398  0.35701884     0.78400
Cd743      Cd  0.07869937  0.92329495  0.40080715     1.37500
O744        O  0.08693464  0.97008529  0.37774772    -0.56600
O745        O  0.09911510  0.91676967  0.34367239    -0.55400
C746        C  0.07932808  0.92177476  0.47922164     0.78300
O747        O  0.10047128  0.89282426  0.39022527    -0.57800
O748        O  0.12040454  0.96897619  0.40904040    -0.56200
O749        O  0.03332675  0.88057264  0.40216674    -0.56200
O750        O  0.06766908  0.93371434  0.46139433    -0.55400
O751        O  0.08113561  0.96692468  0.12019349    -0.56600
C752        C  0.01843034  0.88947065  0.10614491     0.76000
O753        O  0.08908051  0.90825336  0.03782435    -0.57800
C754        C  0.10658042  0.98169868  0.11161540     0.76000
C755        C  0.10438930  0.89627025  0.14183610     0.78400
Cd756      Cd  0.07804078  0.92211133  0.09752278     1.37500
O757        O  0.03207357  0.91190689  0.12387549    -0.56600
O758        O  0.11294913  0.90558262  0.11013115    -0.55400
C759        C  0.07928698  0.92160357  0.01911332     0.78300
O760        O  0.08355855  0.89882582  0.15299303    -0.57800
O761        O  0.03246456  0.88137195  0.08659483    -0.56200
O762        O  0.11908357  0.96875887  0.09924247    -0.56200
O763        O  0.06926356  0.93498002  0.03649679    -0.55400
O764        O  0.47313784  0.88307919  0.12355997    -0.56600
C765        C  0.39675034  0.87918192  0.10973000     0.76000
O766        O  0.41985389  0.82388247  0.03719003    -0.57800
C767        C  0.48772874  0.87445849  0.10598231     0.76000
C768        C  0.40202139  0.79840720  0.14068353     0.78400
Cd769      Cd  0.42797023  0.84875481  0.09640878     1.37500
O770        O  0.42287914  0.89049222  0.11547301    -0.56600
O771        O  0.39392463  0.79984972  0.10869210    -0.55400
C772        C  0.42629505  0.84569972  0.01794524     0.78300
O773        O  0.42274947  0.82034846  0.15241615    -0.57800
O774        O  0.38508558  0.85370303  0.10045957    -0.56200
O775        O  0.47460160  0.85307968  0.08628294    -0.56200
O776        O  0.43297033  0.86828861  0.03481510    -0.55400
O777        O  0.39247648  0.92122441  0.11681890    -0.56600
C778        C  0.37544438  0.98686414  0.10681895     0.76000
O779        O  0.32689345  0.91725965  0.03800965    -0.57800
C780        C  0.38091513  0.89513591  0.11052734     0.76000
C781        C  0.30111828  0.90284674  0.14254170     0.78400
Cd782      Cd  0.35100377  0.92709631  0.09833097     1.37500
O783        O  0.38469943  0.97271111  0.12489810    -0.56600
O784        O  0.30118765  0.89639881  0.10952564    -0.55400
C785        C  0.34924583  0.92532586  0.01986786     0.78300
O786        O  0.32436937  0.92072113  0.15554093    -0.57800
O787        O  0.35417223  0.97326912  0.08699959    -0.56200
O788        O  0.35523849  0.88368164  0.10211851    -0.56200
O789        O  0.37174462  0.93383539  0.03784101    -0.55400
O790        O  0.08233105  0.61363870  0.37958397    -0.56600
C791        C  0.01418693  0.62531532  0.39310888     0.76000
O792        O  0.08364542  0.67699054  0.46394142    -0.57800
C793        C  0.10592264  0.62220795  0.39497548     0.76000
C794        C  0.09950555  0.70230528  0.36172119     0.78400
Cd795      Cd  0.07359966  0.65177601  0.40501333     1.37500
O796        O  0.02908148  0.61531465  0.37934324    -0.56600
O797        O  0.07940124  0.68020287  0.34933418    -0.55400
C798        C  0.07226908  0.65473175  0.48297474     0.78300
O799        O  0.10726876  0.70086932  0.39386750    -0.57800
O800        O  0.02692247  0.64822062  0.41010057    -0.56200
O801        O  0.11477877  0.64468496  0.41274136    -0.56200
O802        O  0.06157287  0.63173284  0.46603698    -0.55400
O803        O  0.47020508  0.58695850  0.37590486    -0.56600
C804        C  0.39463702  0.51810563  0.38802209     0.76000
O805        O  0.41474638  0.59390927  0.45889504    -0.57800
C806        C  0.48351284  0.61025211  0.39196246     0.76000
C807        C  0.39657388  0.60295647  0.35574648     0.78400
Cd808      Cd  0.42381767  0.57786119  0.39982847     1.37500
O809        O  0.42008720  0.53226074  0.37898060    -0.56600
O810        O  0.41686575  0.59981057  0.34367504    -0.55400
C811        C  0.42213548  0.57872449  0.47795618     0.78300
O812        O  0.38886801  0.59428593  0.38788938    -0.57800
O813        O  0.38251976  0.53174967  0.39928047    -0.56200
O814        O  0.46912428  0.61926087  0.40912203    -0.56200
O815        O  0.43013440  0.56344877  0.46102037    -0.55400
O816        O  0.39226817  0.97281293  0.38069314    -0.56600
C817        C  0.37973935  0.89275604  0.39178156     0.76000
O818        O  0.32746206  0.91565049  0.46092610    -0.57800
C819        C  0.38015997  0.98730898  0.38854241     0.76000
C820        C  0.30320135  0.90271538  0.35583005     0.78400
Cd821      Cd  0.35258318  0.92731870  0.40142773     1.37500
O822        O  0.38887853  0.91647943  0.37602103    -0.56600
O823        O  0.30263068  0.91135390  0.38754083    -0.55400
C824        C  0.34960692  0.92533192  0.47995285     0.78300
O825        O  0.32666021  0.90568601  0.34505867    -0.57800
O826        O  0.35744104  0.88451802  0.41006739    -0.56200
O827        O  0.35520964  0.97399231  0.39957037    -0.56200
O828        O  0.37251690  0.93538505  0.46285411    -0.55400
O829        O  0.41211999  0.53183538  0.12401502    -0.56600
C830        C  0.48000242  0.60858700  0.11128682     0.76000
O831        O  0.41175090  0.59205903  0.03540590    -0.57800
C832        C  0.38965995  0.51763412  0.10643263     0.76000
C833        C  0.39271944  0.60176838  0.13684490     0.78400
Cd834      Cd  0.42095635  0.57729920  0.09594205     1.37500
O835        O  0.46668057  0.58266980  0.11886161    -0.56600
O836        O  0.39913925  0.58385751  0.15069957    -0.55400
C837        C  0.42159426  0.57860730  0.01774764     0.78300
O838        O  0.39888158  0.60796294  0.10369045    -0.57800
O839        O  0.46581671  0.62013030  0.09942931    -0.56200
O840        O  0.38084130  0.53117863  0.08641741    -0.56200
O841        O  0.43100593  0.56481634  0.03609957    -0.55400
O842        O  0.02542927  0.61266383  0.12250490    -0.56600
C843        C  0.10177767  0.62199777  0.10735455     0.76000
O844        O  0.08455007  0.67718941  0.04118988    -0.57800
C845        C  0.01059081  0.62411518  0.11267056     0.76000
C846        C  0.09671168  0.70083890  0.14726033     0.78400
Cd847      Cd  0.07000371  0.65208865  0.10098160     1.37500
O848        O  0.07972301  0.61462439  0.12599113    -0.56600
O849        O  0.09512115  0.67734434  0.15612859    -0.55400
C850        C  0.07149958  0.65499668  0.02277432     0.78300
O851        O  0.08543081  0.70169852  0.11725102    -0.57800
O852        O  0.10975736  0.64394721  0.08788975    -0.56200
O853        O  0.02342250  0.64914528  0.10108978    -0.56200
O854        O  0.05780532  0.63242278  0.04039121    -0.55400
C855        C  0.32721627  0.66881028  0.21200893     0.46700
H856        H  0.32749250  0.66973082  0.18192681    -0.02400
C857        C  0.32732747  0.66825823  0.28268426     0.46700
H858        H  0.32730658  0.66804071  0.31296122    -0.02400
C859        C  0.34124036  0.69829380  0.22887023    -0.16100
C860        C  0.29770020  0.65381153  0.22834783    -0.15800
C861        C  0.34252562  0.65321872  0.22849498    -0.16200
C862        C  0.34095044  0.69802401  0.26631426    -0.16200
C863        C  0.29783305  0.65322335  0.26591467    -0.15700
C864        C  0.34344195  0.65392791  0.26603969    -0.16100
C865        C  0.36355173  0.60003604  0.18926367    -0.11100
C866        C  0.37887259  0.61464338  0.15864127     0.05900
C867        C  0.38080548  0.64110850  0.15000553    -0.06400
C868        C  0.36896398  0.65311058  0.17331178    -0.07100
C869        C  0.35418800  0.63882061  0.20469952    -0.01700
C870        C  0.35060382  0.61133792  0.21168408     0.05200
N871        N  0.33206230  0.59334180  0.23906262     0.67700
H872        H  0.36076983  0.57914249  0.19526433     0.16600
H873        H  0.37182238  0.67398765  0.16707788     0.16300
N874        N  0.39542162  0.65649757  0.11834889     0.75400
O875        O  0.34181459  0.58345530  0.26328549    -0.38100
O876        O  0.30655807  0.57936767  0.23081701    -0.38000
O877        O  0.38175725  0.65743760  0.09076359    -0.38700
O878        O  0.42140531  0.67275274  0.12012304    -0.38800
C879        C  0.34347058  0.62500338  0.31903276    -0.11100
C880        C  0.35823562  0.64251450  0.28978198     0.05900
C881        C  0.38623418  0.64825381  0.28368108    -0.06400
C882        C  0.39801841  0.63461000  0.30493901    -0.07100
C883        C  0.38297146  0.61644095  0.33362372    -0.01700
C884        C  0.35555698  0.61210536  0.34100445     0.05200
N885        N  0.33911120  0.59361591  0.36953402     0.67700
H886        H  0.32205650  0.62050728  0.32412834     0.16600
H887        H  0.41939814  0.63902952  0.29979477     0.16300
N888        N  0.40348585  0.66900073  0.25761387     0.75400
O889        O  0.33721798  0.60372449  0.39961265    -0.38100
O890        O  0.32205257  0.56849393  0.36216744    -0.38000
O891        O  0.41055856  0.69453317  0.26330843    -0.38700
O892        O  0.41636604  0.66274741  0.23380639    -0.38800
C893        C  0.35917847  0.75400866  0.15486093    -0.11100
C894        C  0.38730108  0.77256384  0.16307541     0.05900
C895        C  0.40021940  0.76633267  0.19287732    -0.06400
C896        C  0.38504842  0.74190356  0.21361313    -0.07100
C897        C  0.35672092  0.72387725  0.20604080    -0.01700
C898        C  0.34377947  0.73003387  0.17629486     0.05200
N899        N  0.31455689  0.71324405  0.16893629     0.67700
H900        H  0.34879012  0.75863031  0.13265979     0.16600
H901        H  0.39540443  0.73705600  0.23561686     0.16300
N902        N  0.42884485  0.78423419  0.20214823     0.75400
O903        O  0.30688783  0.69884361  0.14027352    -0.38100
O904        O  0.29689181  0.71736421  0.18670665    -0.38000
O905        O  0.43458614  0.79943543  0.23005589    -0.38700
O906        O  0.44791524  0.78081517  0.18691524    -0.38800
C907        C  0.22870715  0.59994589  0.30780297    -0.11100
C908        C  0.22494352  0.61594838  0.33488913     0.05900
C909        C  0.24522425  0.64428562  0.33910765    -0.06400
C910        C  0.26877346  0.65589867  0.31638717    -0.07100
C911        C  0.27259042  0.63974487  0.28944147    -0.01700
C912        C  0.25243083  0.61133076  0.28564527     0.05200
N913        N  0.25711089  0.59283041  0.26255223     0.67700
H914        H  0.21371210  0.57788128  0.30490589     0.16600
H915        H  0.28400709  0.67786950  0.31944248     0.16300
N916        N  0.24157522  0.66188291  0.36505904     0.75400
O917        O  0.27050471  0.58088234  0.27569351    -0.38100
O918        O  0.24049386  0.58139290  0.23635363    -0.38000
O919        O  0.25682249  0.66940786  0.39318298    -0.38700
O920        O  0.22743810  0.67427692  0.35637516    -0.38800
C921        C  0.36765715  0.77179218  0.30511201    -0.11100
C922        C  0.38631751  0.77194752  0.33210100     0.05900
C923        C  0.38901236  0.74733204  0.33809303    -0.06400
C924        C  0.37361718  0.72351208  0.31681755    -0.07100
C925        C  0.35505225  0.72338420  0.28974145    -0.01700
C926        C  0.35151337  0.74764765  0.28464846     0.05200
N927        N  0.33062085  0.74772283  0.26042644     0.67700
H928        H  0.36462351  0.79012446  0.30100207     0.16600
H929        H  0.37676691  0.70524726  0.32091619     0.16300
N930        N  0.40800995  0.74639758  0.36475354     0.75400
O931        O  0.33689629  0.76794921  0.23836773    -0.38100
O932        O  0.30514518  0.73096655  0.26625730    -0.38000
O933        O  0.39853228  0.73127732  0.39291590    -0.38700
O934        O  0.43359835  0.75609613  0.35690761    -0.38800
C935        C  0.24450911  0.61363965  0.15436021    -0.11100
C936        C  0.22122892  0.61660693  0.16533297     0.05900
C937        C  0.22377459  0.63349976  0.19566050    -0.06400
C938        C  0.24921643  0.64650296  0.21471925    -0.07100
C939        C  0.27201019  0.64200449  0.20511850    -0.01700
C940        C  0.26961084  0.62587941  0.17385701     0.05200
N941        N  0.29145156  0.61972823  0.16263894     0.67700
H942        H  0.24300473  0.60083867  0.13123676     0.16600
H943        H  0.25095948  0.65978073  0.23733490     0.16300
N944        N  0.20095850  0.63795648  0.20732977     0.75400
O945        O  0.28942650  0.59605227  0.17093272    -0.38100
O946        O  0.30598719  0.63257950  0.13526988    -0.39800
O947        O  0.18654782  0.62433629  0.23439731    -0.38700
O948        O  0.19915311  0.65928834  0.19596893    -0.38800
C949        C  0.15694111  0.87442640  0.18097878    -0.11100
C950        C  0.14134025  0.85607719  0.20910611     0.05900
C951        C  0.11318626  0.85022734  0.21413224    -0.06400
C952        C  0.10191822  0.86416493  0.19252128    -0.07100
C953        C  0.11764319  0.88280461  0.16461770    -0.01700
C954        C  0.14536302  0.88760057  0.15862118     0.05200
N955        N  0.16241856  0.90649422  0.13079441     0.67700
H956        H  0.17854658  0.87906005  0.17678595     0.16600
H957        H  0.08032719  0.85954963  0.19671171     0.16300
N958        N  0.09536339  0.82932491  0.23967838     0.75400
O959        O  0.17592143  0.93242145  0.13734468    -0.38100
O960        O  0.16798163  0.89687104  0.10257685    -0.38000
O961        O  0.08072028  0.83494243  0.26148960    -0.38700
O962        O  0.08999598  0.80405959  0.23547397    -0.38800
C963        C  0.25445456  0.86265492  0.15464692    -0.11100
C964        C  0.27521695  0.88945527  0.16456786     0.05900
C965        C  0.27089235  0.90233433  0.19540704    -0.06400
C966        C  0.24618531  0.88828402  0.21563596    -0.07100
C967        C  0.22620474  0.86068009  0.20709618    -0.01700
C968        C  0.23035135  0.84809107  0.17575693     0.05200
N969        N  0.21185574  0.81958453  0.16671238     0.67700
H970        H  0.25750784  0.85234587  0.13142750     0.16600
H971        H  0.24294589  0.89882105  0.23839509     0.16300
N972        N  0.29128245  0.92965738  0.20663663     0.75400
O973        O  0.21792690  0.80079231  0.17768176    -0.38100
O974        O  0.19560676  0.81453536  0.13974939    -0.38000
O975        O  0.28928600  0.95096957  0.19565298    -0.38700
O976        O  0.30757274  0.93199420  0.23273990    -0.38800
C977        C  0.14913401  0.88670060  0.28427469    -0.11100
C978        C  0.14424971  0.85927114  0.29312748     0.05900
C979        C  0.12746262  0.84565440  0.32370577    -0.06400
C980        C  0.11606976  0.85942029  0.34460189    -0.07100
C981        C  0.12028518  0.88643749  0.33517828    -0.01700
C982        C  0.13704274  0.90016628  0.30466837     0.05200
N983        N  0.14245145  0.92797864  0.29451744     0.67700
H984        H  0.16245733  0.89778086  0.26144975     0.16600
H985        H  0.10277105  0.84833328  0.36746263     0.16300
N986        N  0.11944466  0.81690547  0.33196482     0.75400
O987        O  0.15735275  0.94845812  0.31469793    -0.38100
O988        O  0.13096030  0.93187340  0.26648759    -0.38000
O989        O  0.12907801  0.81091605  0.36026383    -0.38700
O990        O  0.09749800  0.79814166  0.31751269    -0.38800
C991        C  0.27586154  0.86903333  0.30743008    -0.11100
C992        C  0.27772086  0.88902532  0.33297530     0.05900
C993        C  0.25484151  0.89467269  0.33706706    -0.06400
C994        C  0.23043819  0.87981971  0.31648903    -0.07100
C995        C  0.22848168  0.85965999  0.29115909    -0.01700
C996        C  0.25152706  0.85422254  0.28670498     0.05200
N997        N  0.25056724  0.83349577  0.26185166     0.67700
H998        H  0.29313087  0.86429600  0.30418196     0.16600
H999        H  0.21323794  0.88470530  0.31947449     0.16300
N1000       N  0.25666010  0.91658233  0.36032633     0.75400
O1001       O  0.26858909  0.84069766  0.23684016    -0.38100
O1002       O  0.23693068  0.80785289  0.27031920    -0.38000
O1003       O  0.26662692  0.94137106  0.34801954    -0.38700
O1004       O  0.24381125  0.91045295  0.39032360    -0.38800
C1005       C  0.13236895  0.72688918  0.19469512    -0.11100
C1006       C  0.11179546  0.72601284  0.17025869     0.05900
C1007       C  0.10693380  0.74956827  0.16741103    -0.06400
C1008       C  0.12298500  0.77352313  0.18801863    -0.07100
C1009       C  0.14361988  0.77447634  0.21229119    -0.01700
C1010       C  0.14831966  0.75080271  0.21559286     0.05200
N1011       N  0.16958889  0.75074714  0.23907267     0.67700
H1012       H  0.13658397  0.70918468  0.19703497     0.16600
H1013       H  0.11881600  0.79123026  0.18562297     0.16300
N1014       N  0.08496697  0.74915222  0.14500216     0.75400
O1015       O  0.16234485  0.73463767  0.26655228    -0.38100
O1016       O  0.19393885  0.75922376  0.22661990    -0.38000
O1017       O  0.06121724  0.74196398  0.15883839    -0.38700
O1018       O  0.09084858  0.76155785  0.11447824    -0.38800
C1019       C  0.14180583  0.74716821  0.34823468    -0.11100
C1020       C  0.11390800  0.72826247  0.33976325     0.05900
C1021       C  0.10082945  0.73416415  0.30995800    -0.06400
C1022       C  0.11603206  0.75801296  0.28843279    -0.07100
C1023       C  0.14428389  0.77634796  0.29595957    -0.01700
C1024       C  0.15702494  0.77113085  0.32678565     0.05200
N1025       N  0.18589067  0.78863019  0.33532611     0.67700
H1026       H  0.15217259  0.74295157  0.37096684     0.16600
H1027       H  0.10549209  0.76248513  0.26617878     0.16300
N1028       N  0.07181552  0.71690218  0.30209405     0.75400
O1029       O  0.20331190  0.77998786  0.32776334    -0.38100
O1030       O  0.19216596  0.80706883  0.35955743    -0.38000
O1031       O  0.05375384  0.72165262  0.31783980    -0.38700
O1032       O  0.06479018  0.70116766  0.27462083    -0.38800
C1033       C  0.17346347  0.83112208  0.78697833     0.46700
H1034       H  0.17435232  0.83218808  0.81709289    -0.02400
C1035       C  0.17151275  0.82953044  0.71632707     0.46700
H1036       H  0.17024304  0.82899752  0.68618215    -0.02400
C1037       C  0.15669102  0.84510272  0.77028829    -0.16100
C1038       C  0.20249031  0.84573616  0.76890745    -0.15800
C1039       C  0.15960032  0.80113920  0.77186704    -0.16200
C1040       C  0.15550963  0.84395985  0.73286416    -0.16200
C1041       C  0.20148274  0.84536633  0.73138990    -0.15700
C1042       C  0.15882503  0.80029936  0.73436004    -0.16100
O1043       O  0.10919444  0.58301865  0.62520798    -0.56600
C1044       C  0.12044381  0.51247947  0.61264831     0.76000
O1045       O  0.17212550  0.58382496  0.54203703    -0.57800
C1046       C  0.11694748  0.60545843  0.60674407     0.76000
C1047       C  0.19502015  0.60165518  0.64426137     0.78400
Cd1048     Cd  0.14571164  0.57237164  0.60021219     1.37500
O1049       O  0.10746851  0.52611363  0.62066171    -0.56600
O1050       O  0.17107255  0.59506430  0.65727615    -0.55400
C1051       C  0.15039741  0.57270397  0.52229035     0.78300
O1052       O  0.19558052  0.59419145  0.61189904    -0.57800
O1053       O  0.14556957  0.52669115  0.60260036    -0.56200
O1054       O  0.13802264  0.61262287  0.58636890    -0.56200
O1055       O  0.12705435  0.56178339  0.53848085    -0.55400
O1056       O  0.41829638  0.88490672  0.87479817    -0.56600
C1057       C  0.48821565  0.87559706  0.88781781     0.76000
O1058       O  0.41801981  0.82293929  0.95998538    -0.57800
C1059       C  0.39509174  0.87629272  0.89115600     0.76000
C1060       C  0.40135949  0.79746962  0.85462105     0.78400
Cd1061     Cd  0.42820029  0.84733516  0.89945963     1.37500
O1062       O  0.47310409  0.88621516  0.87606565    -0.56600
O1063       O  0.40594227  0.82149761  0.84310219    -0.55400
C1064       C  0.42648611  0.84537314  0.97803320     0.78300
O1065       O  0.40965976  0.79649081  0.88667010    -0.57800
O1066       O  0.47551934  0.85134410  0.90187815    -0.56200
O1067       O  0.38643588  0.85347272  0.90892962    -0.56200
O1068       O  0.43544603  0.86799748  0.95994842    -0.55400
O1069       O  0.11524048  0.52905074  0.87965037    -0.56600
C1070       C  0.12180519  0.60637824  0.89468418     0.76000
O1071       O  0.17456538  0.58222164  0.96513992    -0.57800
C1072       C  0.12572001  0.51430382  0.89334574     0.76000
C1073       C  0.20022114  0.60209492  0.85879600     0.78400
Cd1074     Cd  0.15134369  0.57410441  0.90438020     1.37500
O1075       O  0.11287163  0.58270627  0.87953465    -0.56600
O1076       O  0.20062153  0.60890518  0.89172867    -0.55400
C1077       C  0.15168068  0.57274910  0.98250061     0.78300
O1078       O  0.17757516  0.58213450  0.84740988    -0.57800
O1079       O  0.14472151  0.61536928  0.91173670    -0.56200
O1080       O  0.14894751  0.52734790  0.90977868    -0.56200
O1081       O  0.12944289  0.56346634  0.96385287    -0.55400
O1082       O  0.03231364  0.91642433  0.87711860    -0.56600
C1083       C  0.11077146  0.98345907  0.89264995     0.76000
O1084       O  0.09089666  0.91022654  0.96095321    -0.57800
C1085       C  0.01895741  0.89122293  0.88816133     0.76000
C1086       C  0.10629286  0.89925409  0.85701870     0.78400
Cd1087     Cd  0.07869941  0.92329501  0.90080710     1.37500
O1088       O  0.08693471  0.97008538  0.87774772    -0.56600
O1089       O  0.09911505  0.91676970  0.84367227    -0.55400
C1090       C  0.07932808  0.92177478  0.97922159     0.78300
O1091       O  0.10047142  0.89282442  0.89022517    -0.57800
O1092       O  0.12040456  0.96897626  0.90904048    -0.56200
O1093       O  0.03332677  0.88057274  0.90216697    -0.56200
O1094       O  0.06766909  0.93371437  0.96139429    -0.55400
O1095       O  0.08113567  0.96692477  0.62019342    -0.56600
C1096       C  0.01843046  0.88947071  0.60614499     0.76000
O1097       O  0.08908053  0.90825338  0.53782440    -0.57800
C1098       C  0.10658051  0.98169877  0.61161548     0.76000
C1099       C  0.10438946  0.89627039  0.64183608     0.78400
Cd1100     Cd  0.07804088  0.92211143  0.59752282     1.37500
O1101       O  0.03207369  0.91190690  0.62387568    -0.56600
O1102       O  0.11294932  0.90558283  0.61013117    -0.55400
C1103       C  0.07928702  0.92160361  0.51911337     0.78300
O1104       O  0.08355865  0.89882586  0.65299298    -0.57800
O1105       O  0.03246468  0.88137208  0.58659480    -0.56200
O1106       O  0.11908368  0.96875895  0.59924266    -0.56200
O1107       O  0.06926367  0.93498012  0.53649683    -0.55400
O1108       O  0.47313783  0.88307900  0.62356016    -0.56600
C1109       C  0.39675053  0.87918215  0.60973004     0.76000
O1110       O  0.41985392  0.82388247  0.53718991    -0.57800
C1111       C  0.48772874  0.87445848  0.60598221     0.76000
C1112       C  0.40202141  0.79840725  0.64068338     0.78400
Cd1113     Cd  0.42797024  0.84875487  0.59640863     1.37500
O1114       O  0.42287944  0.89049257  0.61547222    -0.56600
O1115       O  0.39392452  0.79984982  0.60869205    -0.55400
C1116       C  0.42629485  0.84569967  0.51794508     0.78300
O1117       O  0.42274961  0.82034846  0.65241589    -0.57800
O1118       O  0.38508560  0.85370308  0.60046038    -0.56200
O1119       O  0.47460162  0.85307988  0.58628250    -0.56200
O1120       O  0.43296996  0.86828853  0.53481492    -0.55400
O1121       O  0.39247684  0.92122477  0.61681823    -0.56600
C1122       C  0.37544455  0.98686431  0.60681902     0.76000
O1123       O  0.32689355  0.91725989  0.53800956    -0.57800
C1124       C  0.38091535  0.89513617  0.61052738     0.76000
C1125       C  0.30111846  0.90284693  0.64254163     0.78400
Cd1126     Cd  0.35100394  0.92709650  0.59833087     1.37500
O1127       O  0.38469961  0.97271125  0.62489810    -0.56600
O1128       O  0.30118786  0.89639885  0.60952564    -0.55400
C1129       C  0.34924590  0.92532595  0.51986774     0.78300
O1130       O  0.32436950  0.92072148  0.65554077    -0.57800
O1131       O  0.35417239  0.97326931  0.58699966    -0.56200
O1132       O  0.35523858  0.88368179  0.60211922    -0.56200
O1133       O  0.37174468  0.93383537  0.53784086    -0.55400
O1134       O  0.08233104  0.61363869  0.87958394    -0.56600
C1135       C  0.01418704  0.62531540  0.89310878     0.76000
O1136       O  0.08364512  0.67699059  0.96394126    -0.57800
C1137       C  0.10592275  0.62220808  0.89497518     0.76000
C1138       C  0.09950569  0.70230536  0.86172099     0.78400
Cd1139     Cd  0.07359977  0.65177610  0.90501315     1.37500
O1140       O  0.02908159  0.61531481  0.87934295    -0.56600
O1141       O  0.07940121  0.68020304  0.84933410    -0.55400
C1142       C  0.07226918  0.65473176  0.98297458     0.78300
O1143       O  0.10726906  0.70086931  0.89386719    -0.57800
O1144       O  0.02692258  0.64822065  0.91010060    -0.56200
O1145       O  0.11477899  0.64468522  0.91274080    -0.56200
O1146       O  0.06157341  0.63173286  0.96603681    -0.55400
O1147       O  0.47020523  0.58695868  0.87590474    -0.56600
C1148       C  0.39463722  0.51810576  0.88802215     0.76000
O1149       O  0.41474654  0.59390940  0.95889506    -0.57800
C1150       C  0.48351301  0.61025222  0.89196251     0.76000
C1151       C  0.39657403  0.60295657  0.85574652     0.78400
Cd1152     Cd  0.42381784  0.57786131  0.89982852     1.37500
O1153       O  0.42008745  0.53226084  0.87898092    -0.56600
O1154       O  0.41686592  0.59981068  0.84367509    -0.55400
C1155       C  0.42213551  0.57872452  0.97795622     0.78300
O1156       O  0.38886816  0.59428603  0.88788942    -0.57800
O1157       O  0.38251990  0.53174983  0.89928024    -0.56200
O1158       O  0.46912447  0.61926090  0.90912226    -0.56200
O1159       O  0.43013438  0.56344875  0.96102041    -0.55400
O1160       O  0.39226807  0.97281295  0.88069305    -0.56600
C1161       C  0.37973937  0.89275608  0.89178183     0.76000
O1162       O  0.32746203  0.91565035  0.96092622    -0.57800
C1163       C  0.38015993  0.98730901  0.88854265     0.76000
C1164       C  0.30320142  0.90271550  0.85583013     0.78400
Cd1165     Cd  0.35258319  0.92731873  0.90142790     1.37500
O1166       O  0.38887851  0.91647942  0.87602120    -0.56600
O1167       O  0.30263072  0.91135402  0.88754090    -0.55400
C1168       C  0.34960689  0.92533188  0.97995298     0.78300
O1169       O  0.32666027  0.90568608  0.84505882    -0.57800
O1170       O  0.35744111  0.88451810  0.91006774    -0.56200
O1171       O  0.35520970  0.97399235  0.89957095    -0.56200
O1172       O  0.37251690  0.93538516  0.96285427    -0.55400
O1173       O  0.41212014  0.53183540  0.62401497    -0.56600
C1174       C  0.48000252  0.60858697  0.61128699     0.76000
O1175       O  0.41175089  0.59205898  0.53540590    -0.57800
C1176       C  0.38966009  0.51763414  0.60643260     0.76000
C1177       C  0.39271957  0.60176840  0.63684495     0.78400
Cd1178     Cd  0.42095646  0.57729921  0.59594205     1.37500
O1179       O  0.46668068  0.58266971  0.61886142    -0.56600
O1180       O  0.39913918  0.58385736  0.65069953    -0.55400
C1181       C  0.42159430  0.57860731  0.51774761     0.78300
O1182       O  0.39888189  0.60796312  0.60369057    -0.57800
O1183       O  0.46581680  0.62013035  0.59942975    -0.56200
O1184       O  0.38084140  0.53117865  0.58641743    -0.56200
O1185       O  0.43100610  0.56481645  0.53609952    -0.55400
O1186       O  0.02542942  0.61266382  0.62250497    -0.56600
C1187       C  0.10177775  0.62199774  0.60735457     0.76000
O1188       O  0.08455044  0.67718937  0.54119002    -0.57800
C1189       C  0.01059096  0.62411520  0.61267078     0.76000
C1190       C  0.09671188  0.70083902  0.64726034     0.78400
Cd1191     Cd  0.07000384  0.65208869  0.60098174     1.37500
O1192       O  0.07972321  0.61462448  0.62599136    -0.56600
O1193       O  0.09512143  0.67734448  0.65612860    -0.55400
C1194       C  0.07149954  0.65499669  0.52277447     0.78300
O1195       O  0.08543088  0.70169855  0.61725111    -0.57800
O1196       O  0.10975734  0.64394709  0.58788959    -0.56200
O1197       O  0.02342265  0.64914535  0.60109018    -0.56200
O1198       O  0.05780495  0.63242287  0.54039139    -0.55400
C1199       C  0.32721647  0.66881040  0.71200892     0.46700
H1200       H  0.32749274  0.66973097  0.68192680    -0.02400
C1201       C  0.32732762  0.66825832  0.78268425     0.46700
H1202       H  0.32730671  0.66804078  0.81296121    -0.02400
C1203       C  0.34124056  0.69829391  0.72887024    -0.16100
C1204       C  0.29770038  0.65381167  0.72834778    -0.15800
C1205       C  0.34252579  0.65321881  0.72849499    -0.16200
C1206       C  0.34095063  0.69802412  0.76631427    -0.16200
C1207       C  0.29783320  0.65322347  0.76591462    -0.15700
C1208       C  0.34344208  0.65392798  0.76603970    -0.16100
C1209       C  0.36355179  0.60003606  0.68926365    -0.11100
C1210       C  0.37887275  0.61464344  0.65864133     0.05900
C1211       C  0.38080576  0.64110862  0.65000566    -0.06400
C1212       C  0.36896424  0.65311069  0.67331188    -0.07100
C1213       C  0.35418816  0.63882069  0.70469955    -0.01700
C1214       C  0.35060389  0.61133796  0.71168406     0.05200
N1215       N  0.33206229  0.59334183  0.73906253     0.67700
H1216       H  0.36076980  0.57914249  0.69526426     0.16600
H1217       H  0.37182271  0.67398779  0.66707804     0.16300
N1218       N  0.39542206  0.65649776  0.61834916     0.75400
O1219       O  0.34181453  0.58345536  0.76328549    -0.38100
O1220       O  0.30655810  0.57936766  0.73081676    -0.38000
O1221       O  0.38175784  0.65743816  0.59076390    -0.38700
O1222       O  0.42140583  0.67275262  0.62012340    -0.38800
C1223       C  0.34347072  0.62500343  0.81903276    -0.11100
C1224       C  0.35823575  0.64251457  0.78978200     0.05900
C1225       C  0.38623432  0.64825389  0.78368112    -0.06400
C1226       C  0.39801855  0.63461010  0.80493905    -0.07100
C1227       C  0.38297161  0.61644103  0.83362374    -0.01700
C1228       C  0.35555711  0.61210541  0.84100445     0.05200
N1229       N  0.33911132  0.59361592  0.86953398     0.67700
H1230       H  0.32205658  0.62050731  0.82412834     0.16600
H1231       H  0.41939834  0.63902965  0.79979482     0.16300
N1232       N  0.40348599  0.66900084  0.75761393     0.75400
O1233       O  0.33721797  0.60372446  0.89961258    -0.38100
O1234       O  0.32205280  0.56849390  0.86216737    -0.38000
O1235       O  0.41055867  0.69453327  0.76330852    -0.38700
O1236       O  0.41636623  0.66274756  0.73380647    -0.38800
C1237       C  0.35917849  0.75400876  0.65486098    -0.11100
C1238       C  0.38730114  0.77256389  0.66307529     0.05900
C1239       C  0.40021954  0.76633271  0.69287710    -0.06400
C1240       C  0.38504859  0.74190364  0.71361300    -0.07100
C1241       C  0.35672106  0.72387736  0.70604080    -0.01700
C1242       C  0.34377953  0.73003398  0.67629497     0.05200
N1243       N  0.31455692  0.71324420  0.66893656     0.67700
H1244       H  0.34879009  0.75863042  0.63265994     0.16600
H1245       H  0.39540464  0.73705608  0.73561664     0.16300
N1246       N  0.42884505  0.78423417  0.70214780     0.75400
O1247       O  0.30688773  0.69884378  0.64027378    -0.38100
O1248       O  0.29689192  0.71736433  0.68670714    -0.38000
O1249       O  0.43458652  0.79943534  0.73005554    -0.38700
O1250       O  0.44791533  0.78081516  0.68691448    -0.38800
C1251       C  0.22870717  0.59994604  0.80780278    -0.11100
C1252       C  0.22494369  0.61594852  0.83488912     0.05900
C1253       C  0.24522451  0.64428569  0.83910778    -0.06400
C1254       C  0.26877372  0.65589879  0.81638726    -0.07100
C1255       C  0.27259055  0.63974499  0.78944140    -0.01700
C1256       C  0.25243088  0.61133094  0.78564507     0.05200
N1257       N  0.25711081  0.59283059  0.76255186     0.67700
H1258       H  0.21371224  0.57788175  0.80490562     0.16600
H1259       H  0.28400725  0.67786931  0.81944265     0.16300
N1260       N  0.24157565  0.66188294  0.86505942     0.75400
O1261       O  0.27050465  0.58088248  0.77569296    -0.38100
O1262       O  0.24049369  0.58139312  0.73635335    -0.38000
O1263       O  0.25682275  0.66940739  0.89318354    -0.38700
O1264       O  0.22743896  0.67427742  0.85637564    -0.38800
C1265       C  0.36765739  0.77179230  0.80511203    -0.11100
C1266       C  0.38631763  0.77194757  0.83210116     0.05900
C1267       C  0.38901237  0.74733204  0.83809329    -0.06400
C1268       C  0.37361723  0.72351212  0.81681774    -0.07100
C1269       C  0.35505243  0.72338430  0.78974148    -0.01700
C1270       C  0.35151363  0.74764780  0.78464843     0.05200
N1271       N  0.33062119  0.74772305  0.76042632     0.67700
H1272       H  0.36462382  0.79012461  0.80100203     0.16600
H1273       H  0.37676689  0.70524728  0.82091645     0.16300
N1274       N  0.40800978  0.74639749  0.86475400     0.75400
O1275       O  0.33689668  0.76794952  0.73836775    -0.38100
O1276       O  0.30514550  0.73096672  0.76625700    -0.38000
O1277       O  0.39853193  0.73127720  0.89291629    -0.38700
O1278       O  0.43359822  0.75609600  0.85690833    -0.38800
C1279       C  0.24450935  0.61363996  0.65436002    -0.11100
C1280       C  0.22122915  0.61660719  0.66533281     0.05900
C1281       C  0.22377482  0.63350000  0.69566038    -0.06400
C1282       C  0.24921664  0.64650317  0.71471914    -0.07100
C1283       C  0.27201040  0.64200470  0.70511839    -0.01700
C1284       C  0.26961107  0.62587968  0.67385684     0.05200
N1285       N  0.29145179  0.61972851  0.66263875     0.67700
H1286       H  0.24300497  0.60083898  0.63123650     0.16600
H1287       H  0.25095969  0.65978094  0.73733486     0.16300
N1288       N  0.20095872  0.63795673  0.70732963     0.75400
O1289       O  0.28942674  0.59605255  0.67093252    -0.38100
O1290       O  0.30598741  0.63257979  0.63526969    -0.39800
O1291       O  0.18654807  0.62433658  0.73439721    -0.38700
O1292       O  0.19915331  0.65928856  0.69596874    -0.38800
C1293       C  0.15694129  0.87442660  0.68097874    -0.11100
C1294       C  0.14134042  0.85607731  0.70910598     0.05900
C1295       C  0.11318641  0.85022740  0.71413208    -0.06400
C1296       C  0.10191839  0.86416500  0.69252113    -0.07100
C1297       C  0.11764335  0.88280477  0.66461766    -0.01700
C1298       C  0.14536324  0.88760082  0.65862119     0.05200
N1299       N  0.16241882  0.90649463  0.63079461     0.67700
H1300       H  0.17854695  0.87906034  0.67678594     0.16600
H1301       H  0.08032716  0.85954960  0.69671156     0.16300
N1302       N  0.09536355  0.82932495  0.73967819     0.75400
O1303       O  0.17592132  0.93242188  0.63734495    -0.38100
O1304       O  0.16798233  0.89687167  0.60257718    -0.38000
O1305       O  0.08072046  0.83494246  0.76148947    -0.38700
O1306       O  0.08999613  0.80405963  0.73547372    -0.38800
C1307       C  0.25445486  0.86265499  0.65464709    -0.11100
C1308       C  0.27521714  0.88945544  0.66456779     0.05900
C1309       C  0.27089241  0.90233461  0.69540680    -0.06400
C1310       C  0.24618541  0.88828424  0.71563575    -0.07100
C1311       C  0.22620494  0.86068025  0.70709616    -0.01700
C1312       C  0.23035166  0.84809114  0.67575706     0.05200
N1313       N  0.21185616  0.81958454  0.66671272     0.67700
H1314       H  0.25750826  0.85234579  0.63142761     0.16600
H1315       H  0.24294587  0.89882142  0.73839500     0.16300
N1316       N  0.29128232  0.92965784  0.70663605     0.75400
O1317       O  0.21792761  0.80079249  0.67768195    -0.38100
O1318       O  0.19560699  0.81453517  0.63974989    -0.38000
O1319       O  0.28928547  0.95096979  0.69565225    -0.38700
O1320       O  0.30757284  0.93199505  0.73273919    -0.38800
C1321       C  0.14913398  0.88670069  0.78427450    -0.11100
C1322       C  0.14424983  0.85927130  0.79312734     0.05900
C1323       C  0.12746282  0.84565459  0.82370573    -0.06400
C1324       C  0.11606998  0.85942050  0.84460179    -0.07100
C1325       C  0.12028523  0.88643761  0.83517813    -0.01700
C1326       C  0.13704268  0.90016636  0.80466809     0.05200
N1327       N  0.14245118  0.92797862  0.79451699     0.67700
H1328       H  0.16245742  0.89778108  0.76144918     0.16600
H1329       H  0.10277115  0.84833336  0.86746292     0.16300
N1330       N  0.11944494  0.81690569  0.83196484     0.75400
O1331       O  0.15735252  0.94845824  0.81469726    -0.38100
O1332       O  0.13095983  0.93187316  0.76648720    -0.38000
O1333       O  0.12907828  0.81091636  0.86026393    -0.38700
O1334       O  0.09749832  0.79814183  0.81751270    -0.38800
C1335       C  0.27586159  0.86903337  0.80743027    -0.11100
C1336       C  0.27772097  0.88902549  0.83297532     0.05900
C1337       C  0.25484171  0.89467303  0.83706686    -0.06400
C1338       C  0.23043840  0.87982007  0.81648880    -0.07100
C1339       C  0.22848183  0.85966023  0.79115902    -0.01700
C1340       C  0.25152714  0.85422262  0.78670511     0.05200
N1341       N  0.25056725  0.83349573  0.76185196     0.67700
H1342       H  0.29313088  0.86429591  0.80418231     0.16600
H1343       H  0.21323818  0.88470576  0.81947411     0.16300
N1344       N  0.25666040  0.91658282  0.86032590     0.75400
O1345       O  0.26858895  0.84069755  0.73684029    -0.38100
O1346       O  0.23693096  0.80785290  0.77031991    -0.38000
O1347       O  0.26662755  0.94137155  0.84801899    -0.38700
O1348       O  0.24381135  0.91045365  0.89032302    -0.38800
C1349       C  0.13236919  0.72688939  0.69469507    -0.11100
C1350       C  0.11179571  0.72601298  0.67025864     0.05900
C1351       C  0.10693407  0.74956844  0.66741091    -0.06400
C1352       C  0.12298527  0.77352325  0.68801852    -0.07100
C1353       C  0.14362012  0.77447652  0.71229112    -0.01700
C1354       C  0.14831991  0.75080287  0.71559281     0.05200
N1355       N  0.16958915  0.75074733  0.73907259     0.67700
H1356       H  0.13658428  0.70918459  0.69703499     0.16600
H1357       H  0.11881619  0.79123074  0.68562278     0.16300
N1358       N  0.08496730  0.74915241  0.64500196     0.75400
O1359       O  0.16234511  0.73463795  0.76655230    -0.38100
O1360       O  0.19393905  0.75922378  0.72661974    -0.38000
O1361       O  0.06121756  0.74196426  0.65883812    -0.38700
O1362       O  0.09084897  0.76155798  0.61447799    -0.38800
C1363       C  0.14180597  0.74716830  0.84823447    -0.11100
C1364       C  0.11390816  0.72826257  0.83976308     0.05900
C1365       C  0.10082961  0.73416429  0.80995782    -0.06400
C1366       C  0.11603227  0.75801313  0.78843273    -0.07100
C1367       C  0.14428407  0.77634814  0.79595949    -0.01700
C1368       C  0.15702511  0.77113098  0.82678558     0.05200
N1369       N  0.18589082  0.78863030  0.83532608     0.67700
H1370       H  0.15217288  0.74295158  0.87096698     0.16600
H1371       H  0.10549213  0.76248539  0.76617833     0.16300
N1372       N  0.07181570  0.71690233  0.80209384     0.75400
O1373       O  0.20331199  0.77998777  0.82776384    -0.38100
O1374       O  0.19216610  0.80706917  0.85955710    -0.38000
O1375       O  0.05375400  0.72165276  0.81783955    -0.38700
O1376       O  0.06479039  0.70116784  0.77462058    -0.38800
C1377       C  0.67346342  0.33112206  0.28697825     0.46700
H1378       H  0.67435228  0.33218808  0.31709280    -0.02400
C1379       C  0.67151270  0.32953036  0.21632699     0.46700
H1380       H  0.67024299  0.32899740  0.18618208    -0.02400
C1381       C  0.65669103  0.34510276  0.27028815    -0.16100
C1382       C  0.70249027  0.34573607  0.26890738    -0.15800
C1383       C  0.65960021  0.30113916  0.27186700    -0.16200
C1384       C  0.65550963  0.34395984  0.23286402    -0.16200
C1385       C  0.70148271  0.34536623  0.23138984    -0.15700
C1386       C  0.65882492  0.30029930  0.23436001    -0.16100
O1387       O  0.60919418  0.08301856  0.12520796    -0.56600
C1388       C  0.62044364  0.01247947  0.11264822     0.76000
O1389       O  0.67212539  0.08382543  0.04203701    -0.57800
C1390       C  0.61694726  0.10545841  0.10674421     0.76000
C1391       C  0.69501991  0.10165495  0.14426149     0.78400
Cd1392     Cd  0.64571145  0.07237165  0.10021215     1.37500
O1393       O  0.60746827  0.02611359  0.12066139    -0.56600
O1394       O  0.67107233  0.09506430  0.15727614    -0.55400
C1395       C  0.65039734  0.07270418  0.02229029     0.78300
O1396       O  0.69558029  0.09419111  0.11189922    -0.57800
O1397       O  0.64556945  0.02669118  0.10260048    -0.56200
O1398       O  0.63802249  0.11262295  0.08636914    -0.56200
O1399       O  0.62705427  0.06178326  0.03848076    -0.55400
O1400       O  0.91829661  0.38490690  0.37479818    -0.56600
C1401       C  0.98821560  0.37559681  0.38781755     0.76000
O1402       O  0.91801952  0.32293914  0.45998498    -0.57800
C1403       C  0.89509188  0.37629282  0.39115581     0.76000
C1404       C  0.90135948  0.29746955  0.35462063     0.78400
Cd1405     Cd  0.92820026  0.34733507  0.39945926     1.37500
O1406       O  0.97310409  0.38621483  0.37606494    -0.56600
O1407       O  0.90594199  0.32149750  0.34310190    -0.55400
C1408       C  0.92648610  0.34537302  0.47803283     0.78300
O1409       O  0.90966002  0.29649079  0.38666954    -0.57800
O1410       O  0.97551925  0.35134397  0.40187822    -0.56200
O1411       O  0.88643588  0.35347269  0.40892916    -0.56200
O1412       O  0.93544626  0.36799739  0.45994807    -0.55400
O1413       O  0.61524042  0.02905077  0.37965040    -0.56600
C1414       C  0.62180499  0.10637825  0.39468463     0.76000
O1415       O  0.67456530  0.08222171  0.46514008    -0.57800
C1416       C  0.62571992  0.01430384  0.39334581     0.76000
C1417       C  0.70022098  0.10209490  0.35879607     0.78400
Cd1418     Cd  0.65134356  0.07410443  0.40438039     1.37500
O1419       O  0.61287141  0.08270627  0.37953511    -0.56600
O1420       O  0.70062144  0.10890512  0.39172878    -0.55400
C1421       C  0.65168061  0.07274904  0.48250081     0.78300
O1422       O  0.67757494  0.08213455  0.34740996    -0.57800
O1423       O  0.64472135  0.11536930  0.41173705    -0.56200
O1424       O  0.64894737  0.02734791  0.40977887    -0.56200
O1425       O  0.62944280  0.06346616  0.46385309    -0.55400
O1426       O  0.53231353  0.41642443  0.37711886    -0.56600
C1427       C  0.61077140  0.48345912  0.39264983     0.76000
O1428       O  0.59089646  0.41022635  0.46095305    -0.57800
C1429       C  0.51895735  0.39122296  0.38816132     0.76000
C1430       C  0.60629295  0.39925426  0.35701850     0.78400
Cd1431     Cd  0.57869938  0.42329506  0.40080696     1.37500
O1432       O  0.58693470  0.47008541  0.37774748    -0.56600
O1433       O  0.59911515  0.41676989  0.34367209    -0.55400
C1434       C  0.57932813  0.42177483  0.47922146     0.78300
O1435       O  0.60047148  0.39282455  0.39022495    -0.57800
O1436       O  0.62040449  0.46897633  0.40904044    -0.56200
O1437       O  0.53332677  0.38057270  0.40216660    -0.56200
O1438       O  0.56766936  0.43371465  0.46139419    -0.55400
O1439       O  0.58113545  0.46692464  0.12019330    -0.56600
C1440       C  0.51843026  0.38947070  0.10614497     0.76000
O1441       O  0.58908013  0.40825312  0.03782420    -0.57800
C1442       C  0.60658031  0.48169865  0.11161543     0.76000
C1443       C  0.60438930  0.39627021  0.14183583     0.78400
Cd1444     Cd  0.57804070  0.42211131  0.09752268     1.37500
O1445       O  0.53207357  0.41190683  0.12387574    -0.56600
O1446       O  0.61294916  0.40558270  0.11013093    -0.55400
C1447       C  0.57928693  0.42160363  0.01911320     0.78300
O1448       O  0.58355850  0.39882568  0.15299277    -0.57800
O1449       O  0.53246441  0.38137209  0.08659460    -0.56200
O1450       O  0.61908351  0.46875884  0.09924266    -0.56200
O1451       O  0.56926380  0.43498033  0.03649671    -0.55400
O1452       O  0.97313770  0.38307902  0.12355967    -0.56600
C1453       C  0.89675037  0.37918179  0.10972972     0.76000
O1454       O  0.91985388  0.32388227  0.03718967    -0.57800
C1455       C  0.98772865  0.37445831  0.10598216     0.76000
C1456       C  0.90202128  0.29840701  0.14068329     0.78400
Cd1457     Cd  0.92797016  0.34875459  0.09640846     1.37500
O1458       O  0.92287917  0.39049203  0.11547274    -0.56600
O1459       O  0.89392446  0.29984953  0.10869189    -0.55400
C1460       C  0.92629502  0.34569954  0.01794491     0.78300
O1461       O  0.92274942  0.32034825  0.15241582    -0.57800
O1462       O  0.88508556  0.35370291  0.10045923    -0.56200
O1463       O  0.97460157  0.35307947  0.08628283    -0.56200
O1464       O  0.93297029  0.36828841  0.03481480    -0.55400
O1465       O  0.89247663  0.42122432  0.11681874    -0.56600
C1466       C  0.87544455  0.48686418  0.10681901     0.76000
O1467       O  0.82689361  0.41725940  0.03800963    -0.57800
C1468       C  0.88091522  0.39513583  0.11052712     0.76000
C1469       C  0.80111845  0.40284675  0.14254161     0.78400
Cd1470     Cd  0.85100396  0.42709635  0.09833092     1.37500
O1471       O  0.88469965  0.47271115  0.12489806    -0.56600
O1472       O  0.80118779  0.39639897  0.10952549    -0.55400
C1473       C  0.84924604  0.42532596  0.01986783     0.78300
O1474       O  0.82436958  0.42072102  0.15554092    -0.57800
O1475       O  0.85417236  0.47326916  0.08699971    -0.56200
O1476       O  0.85523858  0.38368162  0.10211831    -0.56200
O1477       O  0.87174486  0.43383583  0.03784096    -0.55400
O1478       O  0.58233081  0.11363867  0.37958451    -0.56600
C1479       C  0.51418689  0.12531557  0.39310884     0.76000
O1480       O  0.58364518  0.17699071  0.46394159    -0.57800
C1481       C  0.60592255  0.12220809  0.39497566     0.76000
C1482       C  0.59950559  0.20230547  0.36172124     0.78400
Cd1483     Cd  0.57359962  0.15177621  0.40501346     1.37500
O1484       O  0.52908150  0.11531509  0.37934287    -0.56600
O1485       O  0.57940119  0.18020310  0.34933432    -0.55400
C1486       C  0.57226899  0.15473190  0.48297490     0.78300
O1487       O  0.60726886  0.20086950  0.39386750    -0.57800
O1488       O  0.52692238  0.14822070  0.41010093    -0.56200
O1489       O  0.61477884  0.14468528  0.41274117    -0.56200
O1490       O  0.56157294  0.13173300  0.46603711    -0.55400
O1491       O  0.97020519  0.08695832  0.37590513    -0.56600
C1492       C  0.89463705  0.01810571  0.38802215     0.76000
O1493       O  0.91474678  0.09390950  0.45889510    -0.57800
C1494       C  0.98351298  0.11025202  0.39196253     0.76000
C1495       C  0.89657400  0.10295651  0.35574654     0.78400
Cd1496     Cd  0.92381781  0.07786125  0.39982852     1.37500
O1497       O  0.92008712  0.03226083  0.37898016    -0.56600
O1498       O  0.91686585  0.09981058  0.34367508    -0.55400
C1499       C  0.92213566  0.07872455  0.47795622     0.78300
O1500       O  0.88886817  0.09428602  0.38788946    -0.57800
O1501       O  0.88251993  0.03174974  0.39928104    -0.56200
O1502       O  0.96912446  0.11926091  0.40912190    -0.56200
O1503       O  0.93013437  0.06344866  0.46102039    -0.55400
O1504       O  0.89226775  0.47281297  0.38069213    -0.56600
C1505       C  0.87973953  0.39275620  0.39178169     0.76000
O1506       O  0.82746217  0.41565016  0.46092612    -0.57800
C1507       C  0.88015979  0.48730904  0.38854259     0.76000
C1508       C  0.80320139  0.40271550  0.35583008     0.78400
Cd1509     Cd  0.85258322  0.42731876  0.40142775     1.37500
O1510       O  0.88887878  0.41647966  0.37602134    -0.56600
O1511       O  0.80263070  0.41135396  0.38754089    -0.55400
C1512       C  0.84960706  0.42533191  0.47995283     0.78300
O1513       O  0.82666025  0.40568618  0.34505868    -0.57800
O1514       O  0.85744114  0.38451810  0.41006736    -0.56200
O1515       O  0.85520978  0.47399238  0.39957171    -0.56200
O1516       O  0.87251706  0.43538540  0.46285406    -0.55400
O1517       O  0.91212028  0.03183535  0.12401477    -0.56600
C1518       C  0.98000258  0.10858707  0.11128658     0.76000
O1519       O  0.91175142  0.09205940  0.03540590    -0.57800
C1520       C  0.88966015  0.01763408  0.10643256     0.76000
C1521       C  0.89271952  0.10176829  0.13684493     0.78400
Cd1522     Cd  0.92095648  0.07729919  0.09594201     1.37500
O1523       O  0.96668073  0.08266992  0.11886165    -0.56600
O1524       O  0.89913966  0.08385768  0.15069970    -0.55400
C1525       C  0.92159439  0.07860733  0.01774761     0.78300
O1526       O  0.89888134  0.10796260  0.10369036    -0.57800
O1527       O  0.96581686  0.12013030  0.09942888    -0.56200
O1528       O  0.88084138  0.03117859  0.08641753    -0.56200
O1529       O  0.93100566  0.06481601  0.03609951    -0.55400
O1530       O  0.52542905  0.11266367  0.12250501    -0.56600
C1531       C  0.60177750  0.12199770  0.10735474     0.76000
O1532       O  0.58454979  0.17718939  0.04119016    -0.57800
C1533       C  0.51059060  0.12411507  0.11267087     0.76000
C1534       C  0.59671158  0.20083887  0.14726052     0.78400
Cd1535     Cd  0.57000351  0.15208856  0.10098185     1.37500
O1536       O  0.57972286  0.11462432  0.12599137    -0.56600
O1537       O  0.59512108  0.17734432  0.15612878    -0.55400
C1538       C  0.57149935  0.15499668  0.02277455     0.78300
O1539       O  0.58543061  0.20169843  0.11725126    -0.57800
O1540       O  0.60975714  0.14394713  0.08788991    -0.56200
O1541       O  0.52342231  0.14914523  0.10109030    -0.56200
O1542       O  0.55780515  0.13242275  0.04039141    -0.55400
C1543       C  0.82721625  0.16881011  0.21200890     0.46700
H1544       H  0.82749245  0.16973062  0.18192678    -0.02400
C1545       C  0.82732750  0.16825813  0.28268423     0.46700
H1546       H  0.82730664  0.16804065  0.31296119    -0.02400
C1547       C  0.84124036  0.19829365  0.22887015    -0.16100
C1548       C  0.79770019  0.15381138  0.22834785    -0.15800
C1549       C  0.84252562  0.15321857  0.22849497    -0.16200
C1550       C  0.84095047  0.19802390  0.26631418    -0.16200
C1551       C  0.79783306  0.15322323  0.26591469    -0.15700
C1552       C  0.84344196  0.15392779  0.26603968    -0.16100
C1553       C  0.86355184  0.10003596  0.18926371    -0.11100
C1554       C  0.87887265  0.11464326  0.15864130     0.05900
C1555       C  0.88080551  0.14110837  0.15000553    -0.06400
C1556       C  0.86896397  0.15311040  0.17331176    -0.07100
C1557       C  0.85418801  0.13882047  0.20469952    -0.01700
C1558       C  0.85060389  0.11133779  0.21168413     0.05200
N1559       N  0.83206244  0.09334170  0.23906273     0.67700
H1560       H  0.86076996  0.07914225  0.19526445     0.16600
H1561       H  0.87182237  0.17398765  0.16707779     0.16300
N1562       N  0.89542170  0.15649745  0.11834894     0.75400
O1563       O  0.84181477  0.08345520  0.26328554    -0.38100
O1564       O  0.80655818  0.07936761  0.23081726    -0.38000
O1565       O  0.88175738  0.15743756  0.09076363    -0.38700
O1566       O  0.92140541  0.17275257  0.12012313    -0.38800
C1567       C  0.84347066  0.12500333  0.31903280    -0.11100
C1568       C  0.85823567  0.14251442  0.28978198     0.05900
C1569       C  0.88623423  0.14825375  0.28368106    -0.06400
C1570       C  0.89801848  0.13460998  0.30493902    -0.07100
C1571       C  0.88297157  0.11644097  0.33362377    -0.01700
C1572       C  0.85555709  0.11210537  0.34100452     0.05200
N1573       N  0.83911136  0.09361601  0.36953419     0.67700
H1574       H  0.82205653  0.12050722  0.32412840     0.16600
H1575       H  0.91939827  0.13902951  0.29979475     0.16300
N1576       N  0.90348587  0.16900065  0.25761382     0.75400
O1577       O  0.83721830  0.10372467  0.39961284    -0.38100
O1578       O  0.82205263  0.06849403  0.36216772    -0.38000
O1579       O  0.91055858  0.19453309  0.26330835    -0.38700
O1580       O  0.91636607  0.16274733  0.23380635    -0.38800
C1581       C  0.85917841  0.25400841  0.15486073    -0.11100
C1582       C  0.88730098  0.27256367  0.16307522     0.05900
C1583       C  0.90021930  0.26633259  0.19287722    -0.06400
C1584       C  0.88504835  0.24190348  0.21361301    -0.07100
C1585       C  0.85672089  0.22387709  0.20604068    -0.01700
C1586       C  0.84377943  0.23003363  0.17629468     0.05200
N1587       N  0.81455686  0.21324376  0.16893611     0.67700
H1588       H  0.84878999  0.25863002  0.13265939     0.16600
H1589       H  0.89540446  0.23705595  0.23561696     0.16300
N1590       N  0.92884469  0.28423425  0.20214826     0.75400
O1591       O  0.80688782  0.19884342  0.14027325    -0.38100
O1592       O  0.79689173  0.21736373  0.18670664    -0.38000
O1593       O  0.93458580  0.29943558  0.23005582    -0.38700
O1594       O  0.94791521  0.28081530  0.18691553    -0.38800
C1595       C  0.72870705  0.09994588  0.30780299    -0.11100
C1596       C  0.72494353  0.11594844  0.33488918     0.05900
C1597       C  0.74522432  0.14428564  0.33910771    -0.06400
C1598       C  0.76877356  0.15589868  0.31638723    -0.07100
C1599       C  0.77259042  0.13974480  0.28944151    -0.01700
C1600       C  0.75243076  0.11133073  0.28564530     0.05200
N1601       N  0.75711071  0.09283032  0.26255220     0.67700
H1602       H  0.71371212  0.07788158  0.30490593     0.16600
H1603       H  0.78400706  0.17786922  0.31944251     0.16300
N1604       N  0.74157537  0.16188298  0.36505910     0.75400
O1605       O  0.77050460  0.08088229  0.27569335    -0.38100
O1606       O  0.74049357  0.08139277  0.23635373    -0.38000
O1607       O  0.75682250  0.16940771  0.39318317    -0.38700
O1608       O  0.72743851  0.17427726  0.35637511    -0.38800
C1609       C  0.86765721  0.27179209  0.30511182    -0.11100
C1610       C  0.88631762  0.27194750  0.33210075     0.05900
C1611       C  0.88901251  0.24733202  0.33809279    -0.06400
C1612       C  0.87361727  0.22351206  0.31681739    -0.07100
C1613       C  0.85505229  0.22338410  0.28974133    -0.01700
C1614       C  0.85151340  0.24764756  0.28464831     0.05200
N1615       N  0.83062088  0.24772272  0.26042629     0.67700
H1616       H  0.86462352  0.29012451  0.30100183     0.16600
H1617       H  0.87676704  0.20524709  0.32091606     0.16300
N1618       N  0.90801019  0.24639762  0.36475319     0.75400
O1619       O  0.83689631  0.26794908  0.23836756    -0.38100
O1620       O  0.80514521  0.23096641  0.26625712    -0.38000
O1621       O  0.89853262  0.23127711  0.39291538    -0.38700
O1622       O  0.93359863  0.25609656  0.35690732    -0.38800
C1623       C  0.74450906  0.11363953  0.15436027    -0.11100
C1624       C  0.72122890  0.11660687  0.16533299     0.05900
C1625       C  0.72377460  0.13349972  0.19566053    -0.06400
C1626       C  0.74921644  0.14650286  0.21471928    -0.07100
C1627       C  0.77201016  0.14200434  0.20511854    -0.01700
C1628       C  0.76961078  0.12587923  0.17385708     0.05200
N1629       N  0.79145145  0.11972794  0.16263908     0.67700
H1630       H  0.74300464  0.10083850  0.13123681     0.16600
H1631       H  0.75095953  0.15978069  0.23733496     0.16300
N1632       N  0.70095854  0.13795649  0.20732979     0.75400
O1633       O  0.78942632  0.09605198  0.17093299    -0.38100
O1634       O  0.80598709  0.13257912  0.13527000    -0.39800
O1635       O  0.68654820  0.12433675  0.23439778    -0.38700
O1636       O  0.69915288  0.15928807  0.19596834    -0.38800
C1637       C  0.65694116  0.37442637  0.18097837    -0.11100
C1638       C  0.64134037  0.35607724  0.20910578     0.05900
C1639       C  0.61318639  0.35022739  0.21413198    -0.06400
C1640       C  0.60191832  0.36416494  0.19252100    -0.07100
C1641       C  0.61764322  0.38280458  0.16461737    -0.01700
C1642       C  0.64536305  0.38760051  0.15862076     0.05200
N1643       N  0.66241853  0.40649411  0.13079392     0.67700
H1644       H  0.67854673  0.37906003  0.17678546     0.16600
H1645       H  0.58032720  0.35954963  0.19671153     0.16300
N1646       N  0.59536357  0.32932503  0.23967823     0.75400
O1647       O  0.67592136  0.43242137  0.13734408    -0.38100
O1648       O  0.66798159  0.39687090  0.10257638    -0.38000
O1649       O  0.58072049  0.33494260  0.26148944    -0.38700
O1650       O  0.58999622  0.30405971  0.23547399    -0.38800
C1651       C  0.75445479  0.36265486  0.15464686    -0.11100
C1652       C  0.77521712  0.38945528  0.16456777     0.05900
C1653       C  0.77089248  0.40233438  0.19540685    -0.06400
C1654       C  0.74618544  0.38828411  0.21563582    -0.07100
C1655       C  0.72620491  0.36068012  0.20709606    -0.01700
C1656       C  0.73035157  0.34809105  0.17575693     0.05200
N1657       N  0.71185602  0.31958445  0.16671252     0.67700
H1658       H  0.75750807  0.35234592  0.13142782     0.16600
H1659       H  0.74294603  0.39882102  0.23839456     0.16300
N1660       N  0.79128254  0.42965749  0.20663633     0.75400
O1661       O  0.71792722  0.30079231  0.17768212    -0.38100
O1662       O  0.69560704  0.31453513  0.13974951    -0.38000
O1663       O  0.78928601  0.45096962  0.19565257    -0.38700
O1664       O  0.80757289  0.43199443  0.23273956    -0.38800
C1665       C  0.64913398  0.38670076  0.28427421    -0.11100
C1666       C  0.64424987  0.35927140  0.29312717     0.05900
C1667       C  0.62746294  0.34565476  0.32370564    -0.06400
C1668       C  0.61607012  0.35942070  0.34460170    -0.07100
C1669       C  0.62028532  0.38643778  0.33517793    -0.01700
C1670       C  0.63704268  0.40016645  0.30466779     0.05200
N1671       N  0.64245109  0.42797866  0.29451654     0.67700
H1672       H  0.66245729  0.39778104  0.26144892     0.16600
H1673       H  0.60277142  0.34833366  0.36746278     0.16300
N1674       N  0.61944506  0.31690587  0.33196485     0.75400
O1675       O  0.65735256  0.44845838  0.31469657    -0.38100
O1676       O  0.63095955  0.43187305  0.26648682    -0.38000
O1677       O  0.62907834  0.31091658  0.36026403    -0.38700
O1678       O  0.59749850  0.29814198  0.31751264    -0.38800
C1679       C  0.77586165  0.36903350  0.30743006    -0.11100
C1680       C  0.77772091  0.38902544  0.33297532     0.05900
C1681       C  0.75484152  0.39467275  0.33706710    -0.06400
C1682       C  0.73043824  0.37981979  0.31648898    -0.07100
C1683       C  0.72848179  0.35966012  0.29115899    -0.01700
C1684       C  0.75152720  0.35422270  0.28670491     0.05200
N1685       N  0.75056742  0.33349593  0.26185163     0.67700
H1686       H  0.79313103  0.36429619  0.30418194     0.16600
H1687       H  0.71323794  0.38470535  0.31947445     0.16300
N1688       N  0.75666001  0.41658227  0.36032651     0.75400
O1689       O  0.76858930  0.34069784  0.23684018    -0.38100
O1690       O  0.73693092  0.30785305  0.27031922    -0.38000
O1691       O  0.76662676  0.44137104  0.34801988    -0.38700
O1692       O  0.74381111  0.41045274  0.39032375    -0.38800
C1693       C  0.63236883  0.22688917  0.19469534    -0.11100
C1694       C  0.61179543  0.22601285  0.17025880     0.05900
C1695       C  0.60693391  0.24956837  0.16741094    -0.06400
C1696       C  0.62298516  0.27352323  0.18801847    -0.07100
C1697       C  0.64361997  0.27447642  0.21229114    -0.01700
C1698       C  0.64831962  0.25080271  0.21559299     0.05200
N1699       N  0.66958877  0.25074710  0.23907290     0.67700
H1700       H  0.63658377  0.20918452  0.19703534     0.16600
H1701       H  0.61881623  0.29123052  0.18562267     0.16300
N1702       N  0.58496721  0.24915241  0.14500189     0.75400
O1703       O  0.66234464  0.23463754  0.26655244    -0.38100
O1704       O  0.69393879  0.25922383  0.22662032    -0.38000
O1705       O  0.56121750  0.24196443  0.15883800    -0.38700
O1706       O  0.59084896  0.26155789  0.11447787    -0.38800
C1707       C  0.64180584  0.24716846  0.34823473    -0.11100
C1708       C  0.61390805  0.22826265  0.33976325     0.05900
C1709       C  0.60082955  0.23416425  0.30995786    -0.06400
C1710       C  0.61603216  0.25801307  0.28843269    -0.07100
C1711       C  0.64428395  0.27634814  0.29595952    -0.01700
C1712       C  0.65702497  0.27113108  0.32678570     0.05200
N1713       N  0.68589067  0.28863046  0.33532620     0.67700
H1714       H  0.65217263  0.24295186  0.37096711     0.16600
H1715       H  0.60549215  0.26248521  0.26617847     0.16300
N1716       N  0.57181569  0.21690214  0.30209368     0.75400
O1717       O  0.70331197  0.27998825  0.32776330    -0.38100
O1718       O  0.69216591  0.30706902  0.35955763    -0.38000
O1719       O  0.55375384  0.22165252  0.31783905    -0.38700
O1720       O  0.56479059  0.20116754  0.27462054    -0.38800
C1721       C  0.67346353  0.33112226  0.78697835     0.46700
H1722       H  0.67435238  0.33218830  0.81709290    -0.02400
C1723       C  0.67151285  0.32953052  0.71632710     0.46700
H1724       H  0.67024315  0.32899755  0.68618217    -0.02400
C1725       C  0.65669115  0.34510295  0.77028821    -0.16100
C1726       C  0.70249039  0.34573626  0.76890750    -0.15800
C1727       C  0.65960031  0.30113935  0.77186713    -0.16200
C1728       C  0.65550978  0.34396001  0.73286408    -0.16200
C1729       C  0.70148284  0.34536638  0.73138995    -0.15700
C1730       C  0.65882506  0.30029947  0.73436013    -0.16100
O1731       O  0.60919429  0.08301863  0.62520813    -0.56600
C1732       C  0.62044373  0.01247946  0.61264836     0.76000
O1733       O  0.67212541  0.08382509  0.54203718    -0.57800
C1734       C  0.61694734  0.10545842  0.60674426     0.76000
C1735       C  0.69502004  0.10165516  0.64426149     0.78400
Cd1736     Cd  0.64571152  0.07237165  0.60021232     1.37500
O1737       O  0.60746842  0.02611359  0.62066179    -0.56600
O1738       O  0.67107246  0.09506429  0.65727629    -0.55400
C1739       C  0.65039733  0.07270407  0.52229048     0.78300
O1740       O  0.69558039  0.09419144  0.61189914    -0.57800
O1741       O  0.64556949  0.02669116  0.60260042    -0.56200
O1742       O  0.63802252  0.11262288  0.58636911    -0.56200
O1743       O  0.62705427  0.06178341  0.53848096    -0.55400
O1744       O  0.91829656  0.38490687  0.87479811    -0.56600
C1745       C  0.98821569  0.37559697  0.88781770     0.76000
O1746       O  0.91801975  0.32293916  0.95998499    -0.57800
C1747       C  0.89509189  0.37629283  0.89115587     0.76000
C1748       C  0.90135959  0.29746965  0.85462064     0.78400
Cd1749     Cd  0.92820033  0.34733514  0.89945931     1.37500
O1750       O  0.97310417  0.38621501  0.87606521    -0.56600
O1751       O  0.90594236  0.32149764  0.84310179    -0.55400
C1752       C  0.92648610  0.34537300  0.97803287     0.78300
O1753       O  0.90965984  0.29649082  0.88666970    -0.57800
O1754       O  0.97551935  0.35134408  0.90187824    -0.56200
O1755       O  0.88643596  0.35347276  0.90892932    -0.56200
O1756       O  0.93544608  0.36799737  0.95994814    -0.55400
O1757       O  0.61524051  0.02905087  0.87965018    -0.56600
C1758       C  0.62180503  0.10637833  0.89468436     0.76000
O1759       O  0.67456535  0.08222200  0.96513991    -0.57800
C1760       C  0.62572001  0.01430395  0.89334563     0.76000
C1761       C  0.70022106  0.10209502  0.85879593     0.78400
Cd1762     Cd  0.65134361  0.07410454  0.90438019     1.37500
O1763       O  0.61287145  0.08270635  0.87953487    -0.56600
O1764       O  0.70062152  0.10890517  0.89172866    -0.55400
C1765       C  0.65168064  0.07274917  0.98250062     0.78300
O1766       O  0.67757501  0.08213472  0.84740976    -0.57800
O1767       O  0.64472140  0.11536940  0.91173677    -0.56200
O1768       O  0.64894746  0.02734803  0.90977870    -0.56200
O1769       O  0.62944283  0.06346613  0.96385288    -0.55400
O1770       O  0.53231353  0.41642463  0.87711896    -0.56600
C1771       C  0.61077151  0.48345929  0.89264990     0.76000
O1772       O  0.59089636  0.41022639  0.96095305    -0.57800
C1773       C  0.51895735  0.39122315  0.88816139     0.76000
C1774       C  0.60629293  0.39925441  0.85701845     0.78400
Cd1775     Cd  0.57869940  0.42329523  0.90080697     1.37500
O1776       O  0.58693485  0.47008562  0.87774743    -0.56600
O1777       O  0.59911499  0.41676993  0.84367200    -0.55400
C1778       C  0.57932805  0.42177488  0.97922147     0.78300
O1779       O  0.60047161  0.39282482  0.89022496    -0.57800
O1780       O  0.62040451  0.46897646  0.90904061    -0.56200
O1781       O  0.53332678  0.38057288  0.90216661    -0.56200
O1782       O  0.56766934  0.43371478  0.96139420    -0.55400
O1783       O  0.58113569  0.46692476  0.62019323    -0.56600
C1784       C  0.51843049  0.38947080  0.60614498     0.76000
O1785       O  0.58908033  0.40825319  0.53782421    -0.57800
C1786       C  0.60658054  0.48169876  0.61161536     0.76000
C1787       C  0.60438953  0.39627037  0.64183580     0.78400
Cd1788     Cd  0.57804092  0.42211143  0.59752265     1.37500
O1789       O  0.53207380  0.41190691  0.62387579    -0.56600
O1790       O  0.61294936  0.40558279  0.61013086    -0.55400
C1791       C  0.57928707  0.42160365  0.51911319     0.78300
O1792       O  0.58355877  0.39882589  0.65299276    -0.57800
O1793       O  0.53246464  0.38137222  0.58659457    -0.56200
O1794       O  0.61908374  0.46875895  0.59924258    -0.56200
O1795       O  0.56926396  0.43498037  0.53649668    -0.55400
O1796       O  0.97313785  0.38307906  0.62355968    -0.56600
C1797       C  0.89675046  0.37918181  0.60972971     0.76000
O1798       O  0.91985379  0.32388231  0.53718965    -0.57800
C1799       C  0.98772880  0.37445837  0.60598213     0.76000
C1800       C  0.90202151  0.29840705  0.64068316     0.78400
Cd1801     Cd  0.92797031  0.34875467  0.59640842     1.37500
O1802       O  0.92287926  0.39049208  0.61547271    -0.56600
O1803       O  0.89392470  0.29984959  0.60869177    -0.55400
C1804       C  0.92629508  0.34569960  0.51794487     0.78300
O1805       O  0.92274962  0.32034831  0.65241574    -0.57800
O1806       O  0.88508567  0.35370293  0.60045926    -0.56200
O1807       O  0.97460172  0.35307956  0.58628274    -0.56200
O1808       O  0.93297056  0.36828851  0.53481475    -0.55400
O1809       O  0.89247668  0.42122433  0.61681871    -0.56600
C1810       C  0.87544469  0.48686418  0.60681892     0.76000
O1811       O  0.82689366  0.41725952  0.53800953    -0.57800
C1812       C  0.88091529  0.39513584  0.61052709     0.76000
C1813       C  0.80111854  0.40284679  0.64254159     0.78400
Cd1814     Cd  0.85100402  0.42709634  0.59833082     1.37500
O1815       O  0.88469983  0.47271112  0.62489786    -0.56600
O1816       O  0.80118787  0.39639890  0.60952551    -0.55400
C1817       C  0.84924605  0.42532592  0.51986771     0.78300
O1818       O  0.82436965  0.42072115  0.65554082    -0.57800
O1819       O  0.85417244  0.47326918  0.58699971    -0.56200
O1820       O  0.85523865  0.38368161  0.60211824    -0.56200
O1821       O  0.87174487  0.43383566  0.53784082    -0.55400
O1822       O  0.58233083  0.11363872  0.87958429    -0.56600
C1823       C  0.51418689  0.12531552  0.89310885     0.76000
O1824       O  0.58364483  0.17699066  0.96394151    -0.57800
C1825       C  0.60592258  0.12220816  0.89497541     0.76000
C1826       C  0.59950561  0.20230551  0.86172116     0.78400
Cd1827     Cd  0.57359962  0.15177622  0.90501335     1.37500
O1828       O  0.52908148  0.11531504  0.87934288    -0.56600
O1829       O  0.57940110  0.18020320  0.84933430    -0.55400
C1830       C  0.57226897  0.15473181  0.98297481     0.78300
O1831       O  0.60726900  0.20086945  0.89386735    -0.57800
O1832       O  0.52692239  0.14822068  0.91010087    -0.56200
O1833       O  0.61477887  0.14468535  0.91274092    -0.56200
O1834       O  0.56157329  0.13173293  0.96603700    -0.55400
O1835       O  0.97020522  0.08695831  0.87590511    -0.56600
C1836       C  0.89463706  0.01810579  0.88802226     0.76000
O1837       O  0.91474700  0.09390973  0.95889507    -0.57800
C1838       C  0.98351304  0.11025199  0.89196255     0.76000
C1839       C  0.89657406  0.10295661  0.85574653     0.78400
Cd1840     Cd  0.92381786  0.07786132  0.89982852     1.37500
O1841       O  0.92008708  0.03226089  0.87898008    -0.56600
O1842       O  0.91686591  0.09981067  0.84367507    -0.55400
C1843       C  0.92213565  0.07872459  0.97795619     0.78300
O1844       O  0.88886823  0.09428611  0.88788945    -0.57800
O1845       O  0.88251998  0.03174984  0.89928128    -0.56200
O1846       O  0.96912455  0.11926089  0.90912198    -0.56200
O1847       O  0.93013418  0.06344856  0.96102036    -0.55400
O1848       O  0.89226800  0.47281304  0.88069261    -0.56600
C1849       C  0.87973955  0.39275623  0.89178178     0.76000
O1850       O  0.82746219  0.41565007  0.96092622    -0.57800
C1851       C  0.88015997  0.48730912  0.88854269     0.76000
C1852       C  0.80320151  0.40271569  0.85583016     0.78400
Cd1853     Cd  0.85258331  0.42731884  0.90142789     1.37500
O1854       O  0.88887872  0.41647961  0.87602127    -0.56600
O1855       O  0.80263086  0.41135433  0.88754088    -0.55400
C1856       C  0.84960708  0.42533197  0.97995296     0.78300
O1857       O  0.82666033  0.40568615  0.84505889    -0.57800
O1858       O  0.85744126  0.38451821  0.91006764    -0.56200
O1859       O  0.85520986  0.47399247  0.89957146    -0.56200
O1860       O  0.87251709  0.43538562  0.96285421    -0.55400
O1861       O  0.91212035  0.03183539  0.62401487    -0.56600
C1862       C  0.98000267  0.10858705  0.61128685     0.76000
O1863       O  0.91175130  0.09205922  0.53540594    -0.57800
C1864       C  0.88966022  0.01763414  0.60643265     0.76000
C1865       C  0.89271970  0.10176838  0.63684500     0.78400
Cd1866     Cd  0.92095660  0.07729923  0.59594208     1.37500
O1867       O  0.96668084  0.08266983  0.61886153    -0.56600
O1868       O  0.89913960  0.08385759  0.65069969    -0.55400
C1869       C  0.92159446  0.07860734  0.51774765     0.78300
O1870       O  0.89888174  0.10796288  0.60369051    -0.57800
O1871       O  0.96581694  0.12013036  0.59942944    -0.56200
O1872       O  0.88084146  0.03117866  0.58641763    -0.56200
O1873       O  0.93100599  0.06481624  0.53609955    -0.55400
O1874       O  0.52542927  0.11266379  0.62250500    -0.56600
C1875       C  0.60177762  0.12199775  0.60735477     0.76000
O1876       O  0.58455022  0.17718947  0.54119023    -0.57800
C1877       C  0.51059082  0.12411522  0.61267094     0.76000
C1878       C  0.59671180  0.20083903  0.64726060     0.78400
Cd1879     Cd  0.57000372  0.15208871  0.60098194     1.37500
O1880       O  0.57972306  0.11462448  0.62599154    -0.56600
O1881       O  0.59512133  0.17734449  0.65612884    -0.55400
C1882       C  0.57149943  0.15499680  0.52277464     0.78300
O1883       O  0.58543079  0.20169858  0.61725136    -0.57800
O1884       O  0.60975722  0.14394710  0.58788981    -0.56200
O1885       O  0.52342253  0.14914541  0.60109051    -0.56200
O1886       O  0.55780494  0.13242294  0.54039152    -0.55400
C1887       C  0.82721641  0.16881025  0.71200883     0.46700
H1888       H  0.82749264  0.16973076  0.68192671    -0.02400
C1889       C  0.82732761  0.16825827  0.78268416     0.46700
H1890       H  0.82730673  0.16804078  0.81296111    -0.02400
C1891       C  0.84124054  0.19829378  0.72887008    -0.16100
C1892       C  0.79770034  0.15381156  0.72834774    -0.15800
C1893       C  0.84252573  0.15321867  0.72849494    -0.16200
C1894       C  0.84095062  0.19802404  0.76631410    -0.16200
C1895       C  0.79783318  0.15322340  0.76591458    -0.15700
C1896       C  0.84344206  0.15392790  0.76603964    -0.16100
C1897       C  0.86355192  0.10003601  0.68926370    -0.11100
C1898       C  0.87887285  0.11464339  0.65864136     0.05900
C1899       C  0.88080580  0.14110854  0.65000566    -0.06400
C1900       C  0.86896422  0.15311058  0.67331184    -0.07100
C1901       C  0.85418815  0.13882057  0.70469952    -0.01700
C1902       C  0.85060397  0.11133788  0.71168408     0.05200
N1903       N  0.83206243  0.09334175  0.73906260     0.67700
H1904       H  0.86077000  0.07914247  0.69526434     0.16600
H1905       H  0.87182264  0.17398765  0.66707797     0.16300
N1906       N  0.89542213  0.15649770  0.61834918     0.75400
O1907       O  0.84181476  0.08345538  0.76328559    -0.38100
O1908       O  0.80655824  0.07936746  0.73081687    -0.38000
O1909       O  0.88175794  0.15743801  0.59076384    -0.38700
O1910       O  0.92140587  0.17275267  0.62012351    -0.38800
C1911       C  0.84347078  0.12500347  0.81903279    -0.11100
C1912       C  0.85823575  0.14251454  0.78978197     0.05900
C1913       C  0.88623433  0.14825387  0.78368106    -0.06400
C1914       C  0.89801854  0.13461009  0.80493903    -0.07100
C1915       C  0.88297165  0.11644108  0.83362376    -0.01700
C1916       C  0.85555716  0.11210550  0.84100453     0.05200
N1917       N  0.83911145  0.09361614  0.86953419     0.67700
H1918       H  0.82205645  0.12050733  0.82412844     0.16600
H1919       H  0.91939851  0.13902966  0.79979472     0.16300
N1920       N  0.90348598  0.16900080  0.75761387     0.75400
O1921       O  0.83721821  0.10372481  0.89961274    -0.38100
O1922       O  0.82205288  0.06849410  0.86216778    -0.38000
O1923       O  0.91055865  0.19453323  0.76330841    -0.38700
O1924       O  0.91636623  0.16274752  0.73380642    -0.38800
C1925       C  0.85917858  0.25400855  0.65486064    -0.11100
C1926       C  0.88730123  0.27256370  0.66307508     0.05900
C1927       C  0.90021958  0.26633255  0.69287694    -0.06400
C1928       C  0.88504862  0.24190347  0.71361287    -0.07100
C1929       C  0.85672108  0.22387720  0.70604059    -0.01700
C1930       C  0.84377962  0.23003379  0.67629468     0.05200
N1931       N  0.81455701  0.21324400  0.66893618     0.67700
H1932       H  0.84879034  0.25863014  0.63265978     0.16600
H1933       H  0.89540453  0.23705598  0.73561633     0.16300
N1934       N  0.92884507  0.28423404  0.70214775     0.75400
O1935       O  0.80688787  0.19884368  0.64027332    -0.38100
O1936       O  0.79689196  0.21736402  0.68670683    -0.38000
O1937       O  0.93458645  0.29943518  0.73005552    -0.38700
O1938       O  0.94791540  0.28081509  0.68691449    -0.38800
C1939       C  0.72870703  0.09994612  0.80780264    -0.11100
C1940       C  0.72494361  0.11594858  0.83488904     0.05900
C1941       C  0.74522454  0.14428571  0.83910779    -0.06400
C1942       C  0.76877376  0.15589873  0.81638730    -0.07100
C1943       C  0.77259052  0.13974496  0.78944138    -0.01700
C1944       C  0.75243073  0.11133094  0.78564495     0.05200
N1945       N  0.75711055  0.09283058  0.76255162     0.67700
H1946       H  0.71371189  0.07788169  0.80490537     0.16600
H1947       H  0.78400746  0.17786939  0.81944278     0.16300
N1948       N  0.74157573  0.16188297  0.86505946     0.75400
O1949       O  0.77050463  0.08088264  0.77569243    -0.38100
O1950       O  0.74049319  0.08139296  0.73635336    -0.38000
O1951       O  0.75682293  0.16940749  0.89318349    -0.38700
O1952       O  0.72743897  0.17427740  0.85637577    -0.38800
C1953       C  0.86765747  0.27179228  0.80511166    -0.11100
C1954       C  0.88631775  0.27194761  0.83210074     0.05900
C1955       C  0.88901253  0.24733209  0.83809289    -0.06400
C1956       C  0.87361733  0.22351215  0.81681743    -0.07100
C1957       C  0.85505247  0.22338425  0.78974124    -0.01700
C1958       C  0.85151367  0.24764776  0.78464813     0.05200
N1959       N  0.83062120  0.24772297  0.76042605     0.67700
H1960       H  0.86462387  0.29012471  0.80100161     0.16600
H1961       H  0.87676702  0.20524717  0.82091619     0.16300
N1962       N  0.90801002  0.24639760  0.86475351     0.75400
O1963       O  0.83689668  0.26794938  0.73836738    -0.38100
O1964       O  0.80514552  0.23096665  0.76625679    -0.38000
O1965       O  0.89853225  0.23127739  0.89291589    -0.38700
O1966       O  0.93359843  0.25609610  0.85690771    -0.38800
C1967       C  0.74450921  0.11363981  0.65436015    -0.11100
C1968       C  0.72122906  0.11660715  0.66533288     0.05900
C1969       C  0.72377480  0.13350005  0.69566039    -0.06400
C1970       C  0.74921665  0.14650318  0.71471909    -0.07100
C1971       C  0.77201034  0.14200461  0.70511840    -0.01700
C1972       C  0.76961094  0.12587948  0.67385693     0.05200
N1973       N  0.79145157  0.11972814  0.66263896     0.67700
H1974       H  0.74300475  0.10083868  0.63123659     0.16600
H1975       H  0.75095977  0.15978109  0.73733489     0.16300
N1976       N  0.70095876  0.13795687  0.70732962     0.75400
O1977       O  0.78942639  0.09605216  0.67093290    -0.38100
O1978       O  0.80598724  0.13257930  0.63526988    -0.39800
O1979       O  0.68654829  0.12433701  0.73439747    -0.38700
O1980       O  0.69915327  0.15928858  0.69596837    -0.38800
C1981       C  0.65694142  0.37442661  0.68097846    -0.11100
C1982       C  0.64134055  0.35607741  0.70910580     0.05900
C1983       C  0.61318655  0.35022749  0.71413189    -0.06400
C1984       C  0.60191847  0.36416504  0.69252090    -0.07100
C1985       C  0.61764345  0.38280475  0.66461735    -0.01700
C1986       C  0.64536330  0.38760074  0.65862084     0.05200
N1987       N  0.66241883  0.40649442  0.63079409     0.67700
H1988       H  0.67854681  0.37906027  0.67678568     0.16600
H1989       H  0.58032751  0.35954972  0.69671131     0.16300
N1990       N  0.59536370  0.32932508  0.73967807     0.75400
O1991       O  0.67592157  0.43242167  0.63734433    -0.38100
O1992       O  0.66798204  0.39687130  0.60257659    -0.38000
O1993       O  0.58072061  0.33494261  0.76148930    -0.38700
O1994       O  0.58999630  0.30405976  0.73547368    -0.38800
C1995       C  0.75445493  0.36265487  0.65464707    -0.11100
C1996       C  0.77521723  0.38945534  0.66456779     0.05900
C1997       C  0.77089255  0.40233453  0.69540677    -0.06400
C1998       C  0.74618555  0.38828424  0.71563578    -0.07100
C1999       C  0.72620506  0.36068023  0.70709619    -0.01700
C2000       C  0.73035173  0.34809108  0.67575712     0.05200
N2001       N  0.71185620  0.31958447  0.66671282     0.67700
H2002       H  0.75750826  0.35234577  0.63142788     0.16600
H2003       H  0.74294609  0.39882131  0.73839469     0.16300
N2004       N  0.79128251  0.42965776  0.70663599     0.75400
O2005       O  0.71792754  0.30079239  0.67768226    -0.38100
O2006       O  0.69560710  0.31453509  0.63974992    -0.38000
O2007       O  0.78928578  0.45096974  0.69565202    -0.38700
O2008       O  0.80757297  0.43199497  0.73273919    -0.38800
C2009       C  0.64913398  0.38670092  0.78427415    -0.11100
C2010       C  0.64424994  0.35927158  0.79312718     0.05900
C2011       C  0.62746302  0.34565496  0.82370566    -0.06400
C2012       C  0.61607016  0.35942088  0.84460170    -0.07100
C2013       C  0.62028531  0.38643794  0.83517787    -0.01700
C2014       C  0.63704263  0.40016659  0.80466771     0.05200
N2015       N  0.64245099  0.42797877  0.79451641     0.67700
H2016       H  0.66245725  0.39778117  0.76144892     0.16600
H2017       H  0.60277151  0.34833387  0.86746275     0.16300
N2018       N  0.61944520  0.31690609  0.83196494     0.75400
O2019       O  0.65735233  0.44845851  0.81469650    -0.38100
O2020       O  0.63095952  0.43187313  0.76648660    -0.38000
O2021       O  0.62907847  0.31091686  0.86026418    -0.38700
O2022       O  0.59749869  0.29814215  0.81751271    -0.38800
C2023       C  0.77586170  0.36903357  0.80743030    -0.11100
C2024       C  0.77772104  0.38902566  0.83297537     0.05900
C2025       C  0.75484175  0.39467314  0.83706695    -0.06400
C2026       C  0.73043844  0.37982016  0.81648888    -0.07100
C2027       C  0.72848191  0.35966034  0.79115909    -0.01700
C2028       C  0.75152725  0.35422278  0.78670516     0.05200
N2029       N  0.75056740  0.33349592  0.76185199     0.67700
H2030       H  0.79313099  0.36429615  0.80418232     0.16600
H2031       H  0.71323823  0.38470581  0.81947421     0.16300
N2032       N  0.75666038  0.41658288  0.86032606     0.75400
O2033       O  0.76858921  0.34069774  0.73684046    -0.38100
O2034       O  0.73693097  0.30785308  0.77031979    -0.38000
O2035       O  0.76662734  0.44137159  0.84801916    -0.38700
O2036       O  0.74381144  0.41045362  0.89032327    -0.38800
C2037       C  0.63236907  0.22688935  0.69469540    -0.11100
C2038       C  0.61179563  0.22601302  0.67025888     0.05900
C2039       C  0.60693409  0.24956851  0.66741105    -0.06400
C2040       C  0.62298532  0.27352340  0.68801857    -0.07100
C2041       C  0.64362013  0.27447659  0.71229125    -0.01700
C2042       C  0.64831982  0.25080291  0.71559307     0.05200
N2043       N  0.66958900  0.25074732  0.73907296     0.67700
H2044       H  0.63658401  0.20918483  0.69703537     0.16600
H2045       H  0.61881641  0.29123053  0.68562278     0.16300
N2046       N  0.58496734  0.24915252  0.64500204     0.75400
O2047       O  0.66234489  0.23463794  0.76655267    -0.38100
O2048       O  0.69393894  0.25922380  0.72662023    -0.38000
O2049       O  0.56121756  0.24196425  0.65883811    -0.38700
O2050       O  0.59084908  0.26155820  0.61447815    -0.38800
C2051       C  0.64180584  0.24716858  0.84823481    -0.11100
C2052       C  0.61390808  0.22826272  0.83976322     0.05900
C2053       C  0.60082962  0.23416434  0.80995779    -0.06400
C2054       C  0.61603225  0.25801321  0.78843271    -0.07100
C2055       C  0.64428402  0.27634831  0.79595964    -0.01700
C2056       C  0.65702498  0.27113125  0.82678587     0.05200
N2057       N  0.68589064  0.28863068  0.83532654     0.67700
H2058       H  0.65217262  0.24295198  0.87096727     0.16600
H2059       H  0.60549225  0.26248535  0.76617839     0.16300
N2060       N  0.57181579  0.21690218  0.80209347     0.75400
O2061       O  0.70331200  0.27998849  0.82776388    -0.38100
O2062       O  0.69216574  0.30706924  0.85955794    -0.38000
O2063       O  0.55375385  0.22165238  0.81783893    -0.38700
O2064       O  0.56479081  0.20116776  0.77462016    -0.38800
C2065       C  0.67346342  0.83112209  0.28697827     0.46700
H2066       H  0.67435226  0.83218808  0.31709284    -0.02400
C2067       C  0.67151275  0.82953046  0.21632701     0.46700
H2068       H  0.67024306  0.82899753  0.18618208    -0.02400
C2069       C  0.65669106  0.84510283  0.27028818    -0.16100
C2070       C  0.70249028  0.84573609  0.26890744    -0.15800
C2071       C  0.65960017  0.80113921  0.27186699    -0.16200
C2072       C  0.65550969  0.84395995  0.23286405    -0.16200
C2073       C  0.70148274  0.84536628  0.23138989    -0.15700
C2074       C  0.65882492  0.80029938  0.23435998    -0.16100
O2075       O  0.60919407  0.58301859  0.12520794    -0.56600
C2076       C  0.62044352  0.51247947  0.11264838     0.76000
O2077       O  0.67212532  0.58382535  0.04203716    -0.57800
C2078       C  0.61694724  0.60545848  0.10674426     0.76000
C2079       C  0.69501981  0.60165497  0.14426158     0.78400
Cd2080     Cd  0.64571135  0.57237165  0.10021227     1.37500
O2081       O  0.60746817  0.52611360  0.12066162    -0.56600
O2082       O  0.67107224  0.59506440  0.15727621    -0.55400
C2083       C  0.65039727  0.57270423  0.02229041     0.78300
O2084       O  0.69558016  0.59419103  0.11189935    -0.57800
O2085       O  0.64556931  0.52669116  0.10260055    -0.56200
O2086       O  0.63802252  0.61262303  0.08636928    -0.56200
O2087       O  0.62705419  0.56178340  0.03848085    -0.55400
O2088       O  0.91829663  0.88490685  0.37479829    -0.56600
C2089       C  0.98821569  0.87559685  0.38781776     0.76000
O2090       O  0.91801997  0.82293914  0.45998506    -0.57800
C2091       C  0.89509189  0.87629273  0.39115591     0.76000
C2092       C  0.90135952  0.79746957  0.35462067     0.78400
Cd2093     Cd  0.92820033  0.84733505  0.39945934     1.37500
O2094       O  0.97310417  0.88621485  0.37606513    -0.56600
O2095       O  0.90594239  0.82149759  0.34310180    -0.55400
C2096       C  0.92648613  0.84537298  0.47803289     0.78300
O2097       O  0.90965972  0.79649071  0.38666975    -0.57800
O2098       O  0.97551934  0.85134400  0.40187841    -0.56200
O2099       O  0.88643590  0.85347258  0.40892920    -0.56200
O2100       O  0.93544589  0.86799731  0.45994812    -0.55400
O2101       O  0.61524026  0.52905073  0.37965043    -0.56600
C2102       C  0.62180485  0.60637828  0.39468450     0.76000
O2103       O  0.67456524  0.58222203  0.46513987    -0.57800
C2104       C  0.62571985  0.51430385  0.39334574     0.76000
C2105       C  0.70022090  0.60209491  0.35879596     0.78400
Cd2106     Cd  0.65134343  0.57410445  0.40438022     1.37500
O2107       O  0.61287138  0.58270640  0.37953474    -0.56600
O2108       O  0.70062137  0.60890501  0.39172871    -0.55400
C2109       C  0.65168054  0.57274908  0.48250063     0.78300
O2110       O  0.67757481  0.58213468  0.34740974    -0.57800
O2111       O  0.64472111  0.61536923  0.41173714    -0.56200
O2112       O  0.64894737  0.52734797  0.40977864    -0.56200
O2113       O  0.62944270  0.56346592  0.46385294    -0.55400
O2114       O  0.53231347  0.91642451  0.37711888    -0.56600
C2115       C  0.61077142  0.98345912  0.39264984     0.76000
O2116       O  0.59089648  0.91022645  0.46095296    -0.57800
C2117       C  0.51895729  0.89122299  0.38816117     0.76000
C2118       C  0.60629289  0.89925426  0.35701849     0.78400
Cd2119     Cd  0.57869931  0.92329506  0.40080689     1.37500
O2120       O  0.58693477  0.97008545  0.37774734    -0.56600
O2121       O  0.59911506  0.91676984  0.34367204    -0.55400
C2122       C  0.57932797  0.92177475  0.47922137     0.78300
O2123       O  0.60047142  0.89282456  0.39022495    -0.57800
O2124       O  0.62040441  0.96897628  0.40904057    -0.56200
O2125       O  0.53332671  0.88057267  0.40216629    -0.56200
O2126       O  0.56766904  0.93371442  0.46139411    -0.55400
O2127       O  0.58113555  0.96692466  0.12019302    -0.56600
C2128       C  0.51843037  0.88947073  0.10614491     0.76000
O2129       O  0.58908031  0.90825321  0.03782400    -0.57800
C2130       C  0.60658043  0.98169865  0.11161523     0.76000
C2131       C  0.60438935  0.89627021  0.14183570     0.78400
Cd2132     Cd  0.57804079  0.92211132  0.09752249     1.37500
O2133       O  0.53207369  0.91190691  0.12387557    -0.56600
O2134       O  0.61294917  0.90558262  0.11013076    -0.55400
C2135       C  0.57928695  0.92160359  0.01911300     0.78300
O2136       O  0.58355858  0.89882574  0.15299265    -0.57800
O2137       O  0.53246449  0.88137206  0.08659460    -0.56200
O2138       O  0.61908364  0.96875883  0.09924254    -0.56200
O2139       O  0.56926371  0.93498018  0.03649651    -0.55400
O2140       O  0.97313775  0.88307908  0.12355963    -0.56600
C2141       C  0.89675040  0.87918176  0.10972980     0.76000
O2142       O  0.91985399  0.82388234  0.03718967    -0.57800
C2143       C  0.98772871  0.87445836  0.10598216     0.76000
C2144       C  0.90202127  0.79840701  0.14068317     0.78400
Cd2145     Cd  0.92797022  0.84875461  0.09640845     1.37500
O2146       O  0.92287917  0.89049196  0.11547303    -0.56600
O2147       O  0.89392446  0.79984957  0.10869180    -0.55400
C2148       C  0.92629507  0.84569960  0.01794492     0.78300
O2149       O  0.92274944  0.82034822  0.15241573    -0.57800
O2150       O  0.88508563  0.85370294  0.10045904    -0.56200
O2151       O  0.97460164  0.85307950  0.08628286    -0.56200
O2152       O  0.93297031  0.86828846  0.03481481    -0.55400
O2153       O  0.89247663  0.92122425  0.11681911    -0.56600
C2154       C  0.87544465  0.98686418  0.10681921     0.76000
O2155       O  0.82689366  0.91725929  0.03800987    -0.57800
C2156       C  0.88091525  0.89513580  0.11052725     0.76000
C2157       C  0.80111856  0.90284679  0.14254183     0.78400
Cd2158     Cd  0.85100405  0.92709635  0.09833112     1.37500
O2159       O  0.88469984  0.97271115  0.12489811    -0.56600
O2160       O  0.80118787  0.89639909  0.10952566    -0.55400
C2161       C  0.84924608  0.92532593  0.01986803     0.78300
O2162       O  0.82436971  0.92072096  0.15554119    -0.57800
O2163       O  0.85417236  0.97326915  0.08700008    -0.56200
O2164       O  0.85523865  0.88368163  0.10211824    -0.56200
O2165       O  0.87174493  0.93383592  0.03784113    -0.55400
O2166       O  0.58233078  0.61363882  0.37958410    -0.56600
C2167       C  0.51418667  0.62531537  0.39310887     0.76000
O2168       O  0.58364492  0.67699069  0.46394151    -0.57800
C2169       C  0.60592240  0.62220811  0.39497555     0.76000
C2170       C  0.59950536  0.70230546  0.36172112     0.78400
Cd2171     Cd  0.57359941  0.65177618  0.40501337     1.37500
O2172       O  0.52908128  0.61531482  0.37934311    -0.56600
O2173       O  0.57940088  0.68020313  0.34933426    -0.55400
C2174       C  0.57226875  0.65473187  0.48297483     0.78300
O2175       O  0.60726872  0.70086944  0.39386734    -0.57800
O2176       O  0.52692215  0.64822064  0.41010066    -0.56200
O2177       O  0.61477855  0.64468515  0.41274136    -0.56200
O2178       O  0.56157273  0.63173298  0.46603704    -0.55400
O2179       O  0.97020531  0.58695850  0.37590493    -0.56600
C2180       C  0.89463713  0.51810585  0.38802199     0.76000
O2181       O  0.91474658  0.59390939  0.45889492    -0.57800
C2182       C  0.98351310  0.61025215  0.39196244     0.76000
C2183       C  0.89657415  0.60295673  0.35574635     0.78400
Cd2184     Cd  0.92381792  0.57786140  0.39982833     1.37500
O2185       O  0.92008715  0.53226097  0.37897982    -0.56600
O2186       O  0.91686599  0.59981079  0.34367487    -0.55400
C2187       C  0.92213575  0.57872466  0.47795604     0.78300
O2188       O  0.88886834  0.59428625  0.38788927    -0.57800
O2189       O  0.88252006  0.53174989  0.39928105    -0.56200
O2190       O  0.96912458  0.61926102  0.40912186    -0.56200
O2191       O  0.93013479  0.56344903  0.46102019    -0.55400
O2192       O  0.89226773  0.97281285  0.38069242    -0.56600
C2193       C  0.87973953  0.89275610  0.39178182     0.76000
O2194       O  0.82746221  0.91564982  0.46092634    -0.57800
C2195       C  0.88015972  0.98730890  0.38854273     0.76000
C2196       C  0.80320140  0.90271545  0.35583019     0.78400
Cd2197     Cd  0.85258320  0.92731864  0.40142792     1.37500
O2198       O  0.88887875  0.91647955  0.37602146    -0.56600
O2199       O  0.80263069  0.91135386  0.38754102    -0.55400
C2200       C  0.84960713  0.92533192  0.47995301     0.78300
O2201       O  0.82666027  0.90568613  0.34505880    -0.57800
O2202       O  0.85744115  0.88451799  0.41006753    -0.56200
O2203       O  0.85520967  0.97399222  0.39957170    -0.56200
O2204       O  0.87251712  0.93538567  0.46285419    -0.55400
O2205       O  0.91212010  0.53183535  0.12401476    -0.56600
C2206       C  0.98000255  0.60858705  0.11128653     0.76000
O2207       O  0.91175101  0.59205907  0.03540575    -0.57800
C2208       C  0.88966007  0.51763409  0.10643235     0.76000
C2209       C  0.89271956  0.60176844  0.13684481     0.78400
Cd2210     Cd  0.92095645  0.57729922  0.09594190     1.37500
O2211       O  0.96668066  0.58266991  0.11886165    -0.56600
O2212       O  0.89913952  0.58385769  0.15069952    -0.55400
C2213       C  0.92159445  0.57860741  0.01774749     0.78300
O2214       O  0.89888154  0.60796288  0.10369030    -0.57800
O2215       O  0.96581686  0.62013030  0.09942876    -0.56200
O2216       O  0.88084142  0.53117861  0.08641715    -0.56200
O2217       O  0.93100614  0.56481647  0.03609942    -0.55400
O2218       O  0.52542915  0.61266378  0.12250499    -0.56600
C2219       C  0.60177752  0.62199781  0.10735476     0.76000
O2220       O  0.58454975  0.67718951  0.04119008    -0.57800
C2221       C  0.51059068  0.62411516  0.11267088     0.76000
C2222       C  0.59671160  0.70083898  0.14726046     0.78400
Cd2223     Cd  0.57000356  0.65208869  0.10098179     1.37500
O2224       O  0.57972285  0.61462442  0.12599131    -0.56600
O2225       O  0.59512109  0.67734444  0.15612871    -0.55400
C2226       C  0.57149936  0.65499677  0.02277449     0.78300
O2227       O  0.58543065  0.70169855  0.11725118    -0.57800
O2228       O  0.60975723  0.64394727  0.08788998    -0.56200
O2229       O  0.52342235  0.64914532  0.10109031    -0.56200
O2230       O  0.55780522  0.63242284  0.04039137    -0.55400
C2231       C  0.82721618  0.66881020  0.21200881     0.46700
H2232       H  0.82749237  0.66973071  0.18192670    -0.02400
C2233       C  0.82732747  0.66825822  0.28268414     0.46700
H2234       H  0.82730662  0.66804073  0.31296110    -0.02400
C2235       C  0.84124026  0.69829374  0.22887007    -0.16100
C2236       C  0.79770014  0.65381144  0.22834779    -0.15800
C2237       C  0.84252560  0.65321869  0.22849485    -0.16200
C2238       C  0.84095039  0.69802399  0.26631409    -0.16200
C2239       C  0.79783302  0.65322328  0.26591463    -0.15700
C2240       C  0.84344197  0.65392792  0.26603956    -0.16100
C2241       C  0.86355185  0.60003610  0.18926358    -0.11100
C2242       C  0.87887270  0.61464344  0.15864118     0.05900
C2243       C  0.88080555  0.64110854  0.15000541    -0.06400
C2244       C  0.86896397  0.65311057  0.17331162    -0.07100
C2245       C  0.85418800  0.63882061  0.20469938    -0.01700
C2246       C  0.85060390  0.61133795  0.21168398     0.05200
N2247       N  0.83206242  0.59334184  0.23906256     0.67700
H2248       H  0.86076999  0.57914254  0.19526428     0.16600
H2249       H  0.87182234  0.67398768  0.16707770     0.16300
N2250       N  0.89542175  0.65649764  0.11834884     0.75400
O2251       O  0.84181475  0.58345534  0.26328539    -0.38100
O2252       O  0.80655817  0.57936776  0.23081707    -0.38000
O2253       O  0.88175745  0.65743792  0.09076361    -0.38700
O2254       O  0.92140550  0.67275261  0.12012299    -0.38800
C2255       C  0.84347076  0.62500350  0.31903266    -0.11100
C2256       C  0.85823571  0.64251458  0.28978183     0.05900
C2257       C  0.88623428  0.64825393  0.28368087    -0.06400
C2258       C  0.89801856  0.63461018  0.30493881    -0.07100
C2259       C  0.88297170  0.61644117  0.33362358    -0.01700
C2260       C  0.85555720  0.61210554  0.34100436     0.05200
N2261       N  0.83911149  0.59361614  0.36953400     0.67700
H2262       H  0.82205654  0.62050734  0.32412832     0.16600
H2263       H  0.91939842  0.63902974  0.29979450     0.16300
N2264       N  0.90348589  0.66900082  0.25761360     0.75400
O2265       O  0.83721827  0.60372476  0.39961260    -0.38100
O2266       O  0.82205291  0.56849412  0.36216752    -0.38000
O2267       O  0.91055846  0.69453325  0.26330801    -0.38700
O2268       O  0.91636614  0.66274753  0.23380617    -0.38800
C2269       C  0.85917828  0.75400855  0.15486067    -0.11100
C2270       C  0.88730095  0.77256367  0.16307511     0.05900
C2271       C  0.90021929  0.76633249  0.19287694    -0.06400
C2272       C  0.88504835  0.74190339  0.21361284    -0.07100
C2273       C  0.85672080  0.72387715  0.20604056    -0.01700
C2274       C  0.84377931  0.73003378  0.17629472     0.05200
N2275       N  0.81455668  0.71324405  0.16893631     0.67700
H2276       H  0.84879008  0.75863015  0.13265995     0.16600
H2277       H  0.89540421  0.73705591  0.23561616     0.16300
N2278       N  0.92884475  0.78423402  0.20214784     0.75400
O2279       O  0.80688746  0.69884357  0.14027359    -0.38100
O2280       O  0.79689172  0.71736431  0.18670682    -0.38000
O2281       O  0.93458605  0.79943543  0.23005533    -0.38700
O2282       O  0.94791512  0.78081487  0.18691502    -0.38800
C2283       C  0.72870697  0.59994598  0.30780281    -0.11100
C2284       C  0.72494346  0.61594844  0.33488910     0.05900
C2285       C  0.74522436  0.64428560  0.33910782    -0.06400
C2286       C  0.76877356  0.65589859  0.31638733    -0.07100
C2287       C  0.77259040  0.63974482  0.28944148    -0.01700
C2288       C  0.75243067  0.61133077  0.28564515     0.05200
N2289       N  0.75711061  0.59283038  0.26255202     0.67700
H2290       H  0.71371175  0.57788134  0.30490560     0.16600
H2291       H  0.78400736  0.67786946  0.31944278     0.16300
N2292       N  0.74157551  0.66188286  0.36505942     0.75400
O2293       O  0.77050456  0.58088239  0.27569312    -0.38100
O2294       O  0.74049342  0.58139278  0.23635361    -0.38000
O2295       O  0.75682279  0.66940754  0.39318338    -0.38700
O2296       O  0.72743855  0.67427710  0.35637577    -0.38800
C2297       C  0.86765742  0.77179230  0.30511163    -0.11100
C2298       C  0.88631764  0.77194754  0.33210076     0.05900
C2299       C  0.88901230  0.74733197  0.33809295    -0.06400
C2300       C  0.87361707  0.72351202  0.31681748    -0.07100
C2301       C  0.85505226  0.72338422  0.28974124    -0.01700
C2302       C  0.85151357  0.74764778  0.28464811     0.05200
N2303       N  0.83062118  0.74772309  0.26042596     0.67700
H2304       H  0.86462392  0.79012465  0.30100158     0.16600
H2305       H  0.87676667  0.70524715  0.32091623     0.16300
N2306       N  0.90800973  0.74639740  0.36475362     0.75400
O2307       O  0.83689675  0.76794955  0.23836735    -0.38100
O2308       O  0.80514547  0.73096684  0.26625664    -0.38000
O2309       O  0.89853190  0.73127691  0.39291576    -0.38700
O2310       O  0.93359821  0.75609616  0.35690803    -0.38800
C2311       C  0.74450895  0.61363956  0.15436035    -0.11100
C2312       C  0.72122881  0.61660691  0.16533302     0.05900
C2313       C  0.72377455  0.63349982  0.19566054    -0.06400
C2314       C  0.74921640  0.64650294  0.21471921    -0.07100
C2315       C  0.77201011  0.64200441  0.20511852    -0.01700
C2316       C  0.76961070  0.62587925  0.17385707     0.05200
N2317       N  0.79145134  0.61972796  0.16263906     0.67700
H2318       H  0.74300449  0.60083833  0.13123661     0.16600
H2319       H  0.75095954  0.65978097  0.23733517     0.16300
N2320       N  0.70095853  0.63795666  0.20732975     0.75400
O2321       O  0.78942614  0.59605193  0.17093281    -0.38100
O2322       O  0.80598705  0.63257921  0.13527005    -0.39800
O2323       O  0.68654811  0.62433689  0.23439769    -0.38700
O2324       O  0.69915298  0.65928831  0.19596836    -0.38800
C2325       C  0.65694126  0.87442655  0.18097846    -0.11100
C2326       C  0.64134045  0.85607736  0.20910581     0.05900
C2327       C  0.61318642  0.85022740  0.21413189    -0.06400
C2328       C  0.60191835  0.86416491  0.19252085    -0.07100
C2329       C  0.61764326  0.88280460  0.16461728    -0.01700
C2330       C  0.64536314  0.88760064  0.15862079     0.05200
N2331       N  0.66241864  0.90649430  0.13079402     0.67700
H2332       H  0.67854693  0.87906030  0.17678562     0.16600
H2333       H  0.58032713  0.85954950  0.19671130     0.16300
N2334       N  0.59536360  0.82932498  0.23967805     0.75400
O2335       O  0.67592149  0.93242154  0.13734428    -0.38100
O2336       O  0.66798165  0.89687115  0.10257639    -0.38000
O2337       O  0.58072056  0.83494252  0.26148937    -0.38700
O2338       O  0.58999613  0.80405965  0.23547356    -0.38800
C2339       C  0.75445487  0.86265494  0.15464705    -0.11100
C2340       C  0.77521723  0.88945532  0.16456795     0.05900
C2341       C  0.77089258  0.90233442  0.19540706    -0.06400
C2342       C  0.74618551  0.88828413  0.21563592    -0.07100
C2343       C  0.72620497  0.86068019  0.20709617    -0.01700
C2344       C  0.73035164  0.84809111  0.17575702     0.05200
N2345       N  0.71185607  0.81958454  0.16671257     0.67700
H2346       H  0.75750820  0.85234587  0.13142768     0.16600
H2347       H  0.74294605  0.89882119  0.23839501     0.16300
N2348       N  0.79128266  0.92965750  0.20663659     0.75400
O2349       O  0.71792727  0.80079238  0.17768207    -0.38100
O2350       O  0.69560709  0.81453527  0.13974956    -0.38000
O2351       O  0.78928615  0.95096965  0.19565291    -0.38700
O2352       O  0.80757301  0.93199438  0.23273979    -0.38800
C2353       C  0.64913402  0.88670082  0.28427432    -0.11100
C2354       C  0.64424988  0.85927145  0.29312719     0.05900
C2355       C  0.62746291  0.84565478  0.32370563    -0.06400
C2356       C  0.61607007  0.85942071  0.34460165    -0.07100
C2357       C  0.62028530  0.88643780  0.33517796    -0.01700
C2358       C  0.63704275  0.90016653  0.30466791     0.05200
N2359       N  0.64245132  0.92797882  0.29451685     0.67700
H2360       H  0.66245749  0.89778123  0.26144890     0.16600
H2361       H  0.60277121  0.84833354  0.36746288     0.16300
N2362       N  0.61944507  0.81690591  0.33196484     0.75400
O2363       O  0.65735258  0.94845839  0.31469722    -0.38100
O2364       O  0.63096011  0.93187343  0.26648696    -0.38000
O2365       O  0.62907845  0.81091665  0.36026396    -0.38700
O2366       O  0.59749845  0.79814200  0.31751277    -0.38800
C2367       C  0.77586164  0.86903349  0.30743013    -0.11100
C2368       C  0.77772094  0.88902542  0.33297538     0.05900
C2369       C  0.75484156  0.89467275  0.33706715    -0.06400
C2370       C  0.73043828  0.87981978  0.31648906    -0.07100
C2371       C  0.72848179  0.85966011  0.29115908    -0.01700
C2372       C  0.75152721  0.85422269  0.28670497     0.05200
N2373       N  0.75056744  0.83349596  0.26185162     0.67700
H2374       H  0.79313116  0.86429614  0.30418197     0.16600
H2375       H  0.71323786  0.88470540  0.31947455     0.16300
N2376       N  0.75666011  0.91658234  0.36032648     0.75400
O2377       O  0.76858943  0.84069787  0.23684031    -0.38100
O2378       O  0.73693073  0.80785306  0.27031899    -0.38000
O2379       O  0.76662713  0.94137114  0.34801985    -0.38700
O2380       O  0.74381107  0.91045290  0.39032361    -0.38800
C2381       C  0.63236887  0.72688925  0.19469525    -0.11100
C2382       C  0.61179544  0.72601297  0.17025874     0.05900
C2383       C  0.60693391  0.74956846  0.16741091    -0.06400
C2384       C  0.62298517  0.77352339  0.18801840    -0.07100
C2385       C  0.64361998  0.77447652  0.21229107    -0.01700
C2386       C  0.64831964  0.75080283  0.21559290     0.05200
N2387       N  0.66958879  0.75074721  0.23907281     0.67700
H2388       H  0.63658375  0.70918488  0.19703520     0.16600
H2389       H  0.61881633  0.79123033  0.18562265     0.16300
N2390       N  0.58496714  0.74915248  0.14500194     0.75400
O2391       O  0.66234467  0.73463770  0.26655239    -0.38100
O2392       O  0.69393879  0.75922384  0.22662017    -0.38000
O2393       O  0.56121738  0.74196421  0.15883807    -0.38700
O2394       O  0.59084884  0.76155816  0.11447806    -0.38800
C2395       C  0.64180564  0.74716846  0.34823464    -0.11100
C2396       C  0.61390786  0.72826265  0.33976315     0.05900
C2397       C  0.60082940  0.73416428  0.30995772    -0.06400
C2398       C  0.61603208  0.75801311  0.28843261    -0.07100
C2399       C  0.64428386  0.77634816  0.29595945    -0.01700
C2400       C  0.65702483  0.77113108  0.32678567     0.05200
N2401       N  0.68589051  0.78863044  0.33532622     0.67700
H2402       H  0.65217252  0.74295180  0.37096730     0.16600
H2403       H  0.60549198  0.76248532  0.26617808     0.16300
N2404       N  0.57181555  0.71690220  0.30209349     0.75400
O2405       O  0.70331185  0.77998831  0.32776313    -0.38100
O2406       O  0.69216572  0.80706888  0.35955782    -0.38000
O2407       O  0.55375371  0.72165264  0.31783879    -0.38700
O2408       O  0.56479047  0.70116761  0.27462034    -0.38800
C2409       C  0.67346357  0.83112223  0.78697820     0.46700
H2410       H  0.67435241  0.83218825  0.81709276    -0.02400
C2411       C  0.67151291  0.82953053  0.71632694     0.46700
H2412       H  0.67024323  0.82899756  0.68618202    -0.02400
C2413       C  0.65669118  0.84510291  0.77028806    -0.16100
C2414       C  0.70249043  0.84573627  0.76890737    -0.15800
C2415       C  0.65960038  0.80113932  0.77186696    -0.16200
C2416       C  0.65550981  0.84395998  0.73286393    -0.16200
C2417       C  0.70148290  0.84536641  0.73138982    -0.15700
C2418       C  0.65882514  0.80029946  0.73435996    -0.16100
O2419       O  0.60919436  0.58301874  0.62520808    -0.56600
C2420       C  0.62044376  0.51247957  0.61264832     0.76000
O2421       O  0.67212538  0.58382546  0.54203696    -0.57800
C2422       C  0.61694735  0.60545849  0.60674414     0.76000
C2423       C  0.69502008  0.60165517  0.64426132     0.78400
Cd2424     Cd  0.64571154  0.57237174  0.60021215     1.37500
O2425       O  0.60746840  0.52611370  0.62066156    -0.56600
O2426       O  0.67107252  0.59506454  0.65727601    -0.55400
C2427       C  0.65039730  0.57270413  0.52229030     0.78300
O2428       O  0.69558041  0.59419125  0.61189908    -0.57800
O2429       O  0.64556955  0.52669127  0.60260050    -0.56200
O2430       O  0.63802248  0.61262293  0.58636891    -0.56200
O2431       O  0.62705425  0.56178319  0.53848083    -0.55400
O2432       O  0.91829667  0.88490699  0.87479843    -0.56600
C2433       C  0.98821571  0.87559690  0.88781783     0.76000
O2434       O  0.91801984  0.82293920  0.95998503    -0.57800
C2435       C  0.89509190  0.87629283  0.89115599     0.76000
C2436       C  0.90135960  0.79746962  0.85462072     0.78400
Cd2437     Cd  0.92820034  0.84733513  0.89945935     1.37500
O2438       O  0.97310420  0.88621483  0.87606496    -0.56600
O2439       O  0.90594253  0.82149765  0.84310178    -0.55400
C2440       C  0.92648613  0.84537305  0.97803289     0.78300
O2441       O  0.90965970  0.79649077  0.88666985    -0.57800
O2442       O  0.97551937  0.85134413  0.90187872    -0.56200
O2443       O  0.88643588  0.85347264  0.90892920    -0.56200
O2444       O  0.93544603  0.86799740  0.95994814    -0.55400
O2445       O  0.61524050  0.52905094  0.87965039    -0.56600
C2446       C  0.62180506  0.60637843  0.89468443     0.76000
O2447       O  0.67456532  0.58222202  0.96514006    -0.57800
C2448       C  0.62572001  0.51430402  0.89334583     0.76000
C2449       C  0.70022111  0.60209509  0.85879606     0.78400
Cd2450     Cd  0.65134363  0.57410463  0.90438031     1.37500
O2451       O  0.61287153  0.58270648  0.87953487    -0.56600
O2452       O  0.70062159  0.60890521  0.89172881    -0.55400
C2453       C  0.65168060  0.57274925  0.98250074     0.78300
O2454       O  0.67757502  0.58213484  0.84740987    -0.57800
O2455       O  0.64472138  0.61536947  0.91173695    -0.56200
O2456       O  0.64894747  0.52734811  0.90977886    -0.56200
O2457       O  0.62944281  0.56346630  0.96385298    -0.55400
O2458       O  0.53231351  0.91642466  0.87711895    -0.56600
C2459       C  0.61077152  0.98345922  0.89264968     0.76000
O2460       O  0.59089646  0.91022643  0.96095284    -0.57800
C2461       C  0.51895735  0.89122311  0.88816114     0.76000
C2462       C  0.60629296  0.89925437  0.85701828     0.78400
Cd2463     Cd  0.57869939  0.92329517  0.90080676     1.37500
O2464       O  0.58693488  0.97008555  0.87774714    -0.56600
O2465       O  0.59911508  0.91676994  0.84367184    -0.55400
C2466       C  0.57932805  0.92177482  0.97922126     0.78300
O2467       O  0.60047154  0.89282471  0.89022475    -0.57800
O2468       O  0.62040448  0.96897639  0.90904046    -0.56200
O2469       O  0.53332679  0.88057277  0.90216611    -0.56200
O2470       O  0.56766923  0.93371460  0.96139400    -0.55400
O2471       O  0.58113568  0.96692464  0.62019337    -0.56600
C2472       C  0.51843038  0.88947070  0.60614488     0.76000
O2473       O  0.58908037  0.90825327  0.53782409    -0.57800
C2474       C  0.60658050  0.98169865  0.61161533     0.76000
C2475       C  0.60438940  0.89627016  0.64183560     0.78400
Cd2476     Cd  0.57804082  0.92211131  0.59752257     1.37500
O2477       O  0.53207370  0.91190677  0.62387577    -0.56600
O2478       O  0.61294921  0.90558259  0.61013067    -0.55400
C2479       C  0.57928691  0.92160355  0.51911311     0.78300
O2480       O  0.58355864  0.89882568  0.65299261    -0.57800
O2481       O  0.53246451  0.88137214  0.58659440    -0.56200
O2482       O  0.61908363  0.96875884  0.59924234    -0.56200
O2483       O  0.56926360  0.93498008  0.53649661    -0.55400
O2484       O  0.97313785  0.88307904  0.62355985    -0.56600
C2485       C  0.89675059  0.87918190  0.60972984     0.76000
O2486       O  0.91985415  0.82388234  0.53718972    -0.57800
C2487       C  0.98772883  0.87445842  0.60598223     0.76000
C2488       C  0.90202144  0.79840707  0.64068320     0.78400
Cd2489     Cd  0.92797034  0.84875468  0.59640847     1.37500
O2490       O  0.92287942  0.89049219  0.61547258    -0.56600
O2491       O  0.89392454  0.79984966  0.60869188    -0.55400
C2492       C  0.92629509  0.84569955  0.51794493     0.78300
O2493       O  0.92274967  0.82034825  0.65241570    -0.57800
O2494       O  0.88508573  0.85370297  0.60045959    -0.56200
O2495       O  0.97460178  0.85307967  0.58628274    -0.56200
O2496       O  0.93297021  0.86828841  0.53481479    -0.55400
O2497       O  0.89247688  0.92122446  0.61681866    -0.56600
C2498       C  0.87544471  0.98686424  0.60681925     0.76000
O2499       O  0.82689374  0.91725924  0.53800975    -0.57800
C2500       C  0.88091544  0.89513594  0.61052725     0.76000
C2501       C  0.80111865  0.90284695  0.64254166     0.78400
Cd2502     Cd  0.85100416  0.92709644  0.59833100     1.37500
O2503       O  0.88469990  0.97271120  0.62489814    -0.56600
O2504       O  0.80118799  0.89639917  0.60952553    -0.55400
C2505       C  0.84924616  0.92532599  0.51986789     0.78300
O2506       O  0.82436978  0.92072117  0.65554100    -0.57800
O2507       O  0.85417246  0.97326923  0.58700006    -0.56200
O2508       O  0.85523876  0.88368170  0.60211865    -0.56200
O2509       O  0.87174504  0.93383612  0.53784096    -0.55400
O2510       O  0.58233089  0.61363885  0.87958418    -0.56600
C2511       C  0.51418684  0.62531547  0.89310888     0.76000
O2512       O  0.58364471  0.67699074  0.96394143    -0.57800
C2513       C  0.60592259  0.62220825  0.89497544     0.76000
C2514       C  0.59950562  0.70230555  0.86172108     0.78400
Cd2515     Cd  0.57359959  0.65177627  0.90501330     1.37500
O2516       O  0.52908145  0.61531500  0.87934292    -0.56600
O2517       O  0.57940105  0.68020326  0.84933426    -0.55400
C2518       C  0.57226895  0.65473190  0.98297475     0.78300
O2519       O  0.60726903  0.70086948  0.89386724    -0.57800
O2520       O  0.52692233  0.64822066  0.91010084    -0.56200
O2521       O  0.61477881  0.64468538  0.91274106    -0.56200
O2522       O  0.56157335  0.63173300  0.96603696    -0.55400
O2523       O  0.97020540  0.58695863  0.87590477    -0.56600
C2524       C  0.89463732  0.51810593  0.88802205     0.76000
O2525       O  0.91474675  0.59390954  0.95889493    -0.57800
C2526       C  0.98351321  0.61025223  0.89196240     0.76000
C2527       C  0.89657428  0.60295681  0.85574643     0.78400
Cd2528     Cd  0.92381805  0.57786147  0.89982838     1.37500
O2529       O  0.92008743  0.53226102  0.87898027    -0.56600
O2530       O  0.91686614  0.59981090  0.84367496    -0.55400
C2531       C  0.92213576  0.57872469  0.97795607     0.78300
O2532       O  0.88886844  0.59428628  0.88788934    -0.57800
O2533       O  0.88252015  0.53174998  0.89928069    -0.56200
O2534       O  0.96912472  0.61926103  0.90912201    -0.56200
O2535       O  0.93013469  0.56344898  0.96102026    -0.55400
O2536       O  0.89226767  0.97281292  0.88069242    -0.56600
C2537       C  0.87973954  0.89275619  0.89178194     0.76000
O2538       O  0.82746216  0.91564988  0.96092647    -0.57800
C2539       C  0.88015973  0.98730898  0.88854292     0.76000
C2540       C  0.80320144  0.90271564  0.85583028     0.78400
Cd2541     Cd  0.85258320  0.92731872  0.90142809     1.37500
O2542       O  0.88887880  0.91647969  0.87602170    -0.56600
O2543       O  0.80263071  0.91135408  0.88754109    -0.55400
C2544       C  0.84960707  0.92533189  0.97995316     0.78300
O2545       O  0.82666030  0.90568625  0.84505897    -0.57800
O2546       O  0.85744111  0.88451803  0.91006755    -0.56200
O2547       O  0.85520973  0.97399233  0.89957212    -0.56200
O2548       O  0.87251707  0.93538560  0.96285436    -0.55400
O2549       O  0.91212031  0.53183533  0.62401462    -0.56600
C2550       C  0.98000270  0.60858705  0.61128667     0.76000
O2551       O  0.91175097  0.59205895  0.53540577    -0.57800
C2552       C  0.88966023  0.51763409  0.60643230     0.76000
C2553       C  0.89271978  0.60176847  0.63684491     0.78400
Cd2554     Cd  0.92095661  0.57729923  0.59594190     1.37500
O2555       O  0.96668082  0.58266988  0.61886162    -0.56600
O2556       O  0.89913959  0.58385758  0.65069953    -0.55400
C2557       C  0.92159452  0.57860741  0.51774746     0.78300
O2558       O  0.89888189  0.60796303  0.60369045    -0.57800
O2559       O  0.96581701  0.62013032  0.59942897    -0.56200
O2560       O  0.88084153  0.53117863  0.58641723    -0.56200
O2561       O  0.93100640  0.56481661  0.53609936    -0.55400
O2562       O  0.52542924  0.61266365  0.62250483    -0.56600
C2563       C  0.60177760  0.62199779  0.60735467     0.76000
O2564       O  0.58455002  0.67718945  0.54119016    -0.57800
C2565       C  0.51059077  0.62411513  0.61267111     0.76000
C2566       C  0.59671176  0.70083902  0.64726049     0.78400
Cd2567     Cd  0.57000363  0.65208869  0.60098189     1.37500
O2568       O  0.57972310  0.61462454  0.62599154    -0.56600
O2569       O  0.59512126  0.67734447  0.65612877    -0.55400
C2570       C  0.57149921  0.65499678  0.52277457     0.78300
O2571       O  0.58543077  0.70169856  0.61725125    -0.57800
O2572       O  0.60975713  0.64394711  0.58788964    -0.56200
O2573       O  0.52342245  0.64914540  0.60109093    -0.56200
O2574       O  0.55780475  0.63242292  0.54039146    -0.55400
C2575       C  0.82721639  0.66881025  0.71200881     0.46700
H2576       H  0.82749261  0.66973076  0.68192669    -0.02400
C2577       C  0.82732760  0.66825827  0.78268414     0.46700
H2578       H  0.82730672  0.66804078  0.81296109    -0.02400
C2579       C  0.84124047  0.69829378  0.72887007    -0.16100
C2580       C  0.79770032  0.65381152  0.72834773    -0.15800
C2581       C  0.84252576  0.65321871  0.72849490    -0.16200
C2582       C  0.84095058  0.69802405  0.76631409    -0.16200
C2583       C  0.79783316  0.65322337  0.76591457    -0.15700
C2584       C  0.84344208  0.65392794  0.76603960    -0.16100
C2585       C  0.86355204  0.60003612  0.68926367    -0.11100
C2586       C  0.87887295  0.61464348  0.65864131     0.05900
C2587       C  0.88080586  0.64110862  0.65000560    -0.06400
C2588       C  0.86896426  0.65311064  0.67331178    -0.07100
C2589       C  0.85418821  0.63882064  0.70469948    -0.01700
C2590       C  0.85060408  0.61133796  0.71168406     0.05200
N2591       N  0.83206259  0.59334185  0.73906262     0.67700
H2592       H  0.86077015  0.57914257  0.69526432     0.16600
H2593       H  0.87182265  0.67398773  0.66707790     0.16300
N2594       N  0.89542218  0.65649778  0.61834912     0.75400
O2595       O  0.84181494  0.58345545  0.76328554    -0.38100
O2596       O  0.80655838  0.57936761  0.73081700    -0.38000
O2597       O  0.88175797  0.65743804  0.59076377    -0.38700
O2598       O  0.92140590  0.67275281  0.62012345    -0.38800
C2599       C  0.84347085  0.62500352  0.81903273    -0.11100
C2600       C  0.85823583  0.64251463  0.78978192     0.05900
C2601       C  0.88623442  0.64825404  0.78368102    -0.06400
C2602       C  0.89801872  0.63461031  0.80493897    -0.07100
C2603       C  0.88297183  0.61644126  0.83362369    -0.01700
C2604       C  0.85555732  0.61210559  0.84100444     0.05200
N2605       N  0.83911160  0.59361616  0.86953406     0.67700
H2606       H  0.82205669  0.62050735  0.82412833     0.16600
H2607       H  0.91939853  0.63902990  0.79979471     0.16300
N2608       N  0.90348604  0.66900100  0.75761382     0.75400
O2609       O  0.83721843  0.60372476  0.89961270    -0.38100
O2610       O  0.82205299  0.56849415  0.86216755    -0.38000
O2611       O  0.91055862  0.69453341  0.76330835    -0.38700
O2612       O  0.91636633  0.66274778  0.73380638    -0.38800
C2613       C  0.85917844  0.75400865  0.65486080    -0.11100
C2614       C  0.88730113  0.77256372  0.66307512     0.05900
C2615       C  0.90021952  0.76633249  0.69287686    -0.06400
C2616       C  0.88504857  0.74190340  0.71361276    -0.07100
C2617       C  0.85672101  0.72387719  0.70604058    -0.01700
C2618       C  0.84377948  0.73003387  0.67629481     0.05200
N2619       N  0.81455684  0.71324416  0.66893648     0.67700
H2620       H  0.84879014  0.75863032  0.63266000     0.16600
H2621       H  0.89540452  0.73705585  0.73561618     0.16300
N2622       N  0.92884504  0.78423393  0.70214759     0.75400
O2623       O  0.80688756  0.69884371  0.64027373    -0.38100
O2624       O  0.79689191  0.71736442  0.68670707    -0.38000
O2625       O  0.93458650  0.79943534  0.73005511    -0.38700
O2626       O  0.94791529  0.78081468  0.68691461    -0.38800
C2627       C  0.72870703  0.59994617  0.80780271    -0.11100
C2628       C  0.72494365  0.61594861  0.83488916     0.05900
C2629       C  0.74522463  0.64428574  0.83910793    -0.06400
C2630       C  0.76877379  0.65589873  0.81638736    -0.07100
C2631       C  0.77259052  0.63974496  0.78944139    -0.01700
C2632       C  0.75243070  0.61133095  0.78564498     0.05200
N2633       N  0.75711050  0.59283056  0.76255169     0.67700
H2634       H  0.71371178  0.57788162  0.80490543     0.16600
H2635       H  0.78400762  0.67786951  0.81944287     0.16300
N2636       N  0.74157594  0.66188298  0.86505974     0.75400
O2637       O  0.77050469  0.58088272  0.77569246    -0.38100
O2638       O  0.74049309  0.58139286  0.73635350    -0.38000
O2639       O  0.75682303  0.66940718  0.89318388    -0.38700
O2640       O  0.72743946  0.67427771  0.85637611    -0.38800
C2641       C  0.86765759  0.77179234  0.80511161    -0.11100
C2642       C  0.88631774  0.77194759  0.83210082     0.05900
C2643       C  0.88901235  0.74733200  0.83809308    -0.06400
C2644       C  0.87361717  0.72351208  0.81681757    -0.07100
C2645       C  0.85505243  0.72338427  0.78974124    -0.01700
C2646       C  0.85151376  0.74764785  0.78464805     0.05200
N2647       N  0.83062139  0.74772316  0.76042587     0.67700
H2648       H  0.86462409  0.79012484  0.80100148     0.16600
H2649       H  0.87676676  0.70524705  0.82091641     0.16300
N2650       N  0.90800968  0.74639740  0.86475388     0.75400
O2651       O  0.83689694  0.76794969  0.73836738    -0.38100
O2652       O  0.80514569  0.73096680  0.76625640    -0.38000
O2653       O  0.89853173  0.73127717  0.89291622    -0.38700
O2654       O  0.93359811  0.75609579  0.85690829    -0.38800
C2655       C  0.74450921  0.61363969  0.65436013    -0.11100
C2656       C  0.72122909  0.61660714  0.66533276     0.05900
C2657       C  0.72377483  0.63350008  0.69566021    -0.06400
C2658       C  0.74921665  0.64650316  0.71471901    -0.07100
C2659       C  0.77201032  0.64200453  0.70511838    -0.01700
C2660       C  0.76961092  0.62587936  0.67385697     0.05200
N2661       N  0.79145154  0.61972798  0.66263907     0.67700
H2662       H  0.74300476  0.60083859  0.63123672     0.16600
H2663       H  0.75095976  0.65978104  0.73733467     0.16300
N2664       N  0.70095884  0.63795704  0.70732927     0.75400
O2665       O  0.78942628  0.59605196  0.67093294    -0.38100
O2666       O  0.80598730  0.63257917  0.63527007    -0.39800
O2667       O  0.68654850  0.62433753  0.73439740    -0.38700
O2668       O  0.69915323  0.65928855  0.69596745    -0.38800
C2669       C  0.65694134  0.87442649  0.68097826    -0.11100
C2670       C  0.64134054  0.85607733  0.70910565     0.05900
C2671       C  0.61318652  0.85022737  0.71413176    -0.06400
C2672       C  0.60191842  0.86416486  0.69252073    -0.07100
C2673       C  0.61764333  0.88280454  0.66461713    -0.01700
C2674       C  0.64536319  0.88760056  0.65862060     0.05200
N2675       N  0.66241867  0.90649420  0.63079379     0.67700
H2676       H  0.67854692  0.87906022  0.67678542     0.16600
H2677       H  0.58032729  0.85954949  0.69671119     0.16300
N2678       N  0.59536372  0.82932499  0.73967799     0.75400
O2679       O  0.67592155  0.93242144  0.63734404    -0.38100
O2680       O  0.66798171  0.89687102  0.60257620    -0.38000
O2681       O  0.58072064  0.83494255  0.76148924    -0.38700
O2682       O  0.58999632  0.80405967  0.73547365    -0.38800
C2683       C  0.75445502  0.86265505  0.65464699    -0.11100
C2684       C  0.77521731  0.88945549  0.66456776     0.05900
C2685       C  0.77089260  0.90233465  0.69540676    -0.06400
C2686       C  0.74618558  0.88828431  0.71563572    -0.07100
C2687       C  0.72620511  0.86068031  0.70709609    -0.01700
C2688       C  0.73035182  0.84809120  0.67575699     0.05200
N2689       N  0.71185631  0.81958460  0.66671265     0.67700
H2690       H  0.75750840  0.85234593  0.63142769     0.16600
H2691       H  0.74294607  0.89882141  0.73839477     0.16300
N2692       N  0.79128253  0.92965787  0.70663603     0.75400
O2693       O  0.71792760  0.80079251  0.67768224    -0.38100
O2694       O  0.69560731  0.81453521  0.63974965    -0.38000
O2695       O  0.78928605  0.95096988  0.69565162    -0.38700
O2696       O  0.80757269  0.93199508  0.73273961    -0.38800
C2697       C  0.64913403  0.88670088  0.78427400    -0.11100
C2698       C  0.64424997  0.85927154  0.79312704     0.05900
C2699       C  0.62746308  0.84565493  0.82370554    -0.06400
C2700       C  0.61607020  0.85942084  0.84460156    -0.07100
C2701       C  0.62028535  0.88643790  0.83517771    -0.01700
C2702       C  0.63704269  0.90016655  0.80466757     0.05200
N2703       N  0.64245109  0.92797876  0.79451630     0.67700
H2704       H  0.66245728  0.89778112  0.76144878     0.16600
H2705       H  0.60277157  0.84833385  0.86746260     0.16300
N2706       N  0.61944529  0.81690608  0.83196487     0.75400
O2707       O  0.65735245  0.94845848  0.81469641    -0.38100
O2708       O  0.63095965  0.93187316  0.76648649    -0.38000
O2709       O  0.62907864  0.81091690  0.86026408    -0.38700
O2710       O  0.59749875  0.79814210  0.81751274    -0.38800
C2711       C  0.77586177  0.86903370  0.80743018    -0.11100
C2712       C  0.77772101  0.88902564  0.83297542     0.05900
C2713       C  0.75484165  0.89467301  0.83706708    -0.06400
C2714       C  0.73043838  0.87982006  0.81648892    -0.07100
C2715       C  0.72848194  0.85966036  0.79115899    -0.01700
C2716       C  0.75152735  0.85422292  0.78670498     0.05200
N2717       N  0.75056760  0.83349616  0.76185169     0.67700
H2718       H  0.79313110  0.86429637  0.80418213     0.16600
H2719       H  0.71323813  0.88470563  0.81947432     0.16300
N2720       N  0.75666016  0.91658258  0.86032640     0.75400
O2721       O  0.76858956  0.84069806  0.73684035    -0.38100
O2722       O  0.73693097  0.80785328  0.77031918    -0.38000
O2723       O  0.76662685  0.94137132  0.84801964    -0.38700
O2724       O  0.74381131  0.91045313  0.89032368    -0.38800
C2725       C  0.63236904  0.72688932  0.69469530    -0.11100
C2726       C  0.61179563  0.72601300  0.67025875     0.05900
C2727       C  0.60693415  0.74956854  0.66741085    -0.06400
C2728       C  0.62298542  0.77352341  0.68801837    -0.07100
C2729       C  0.64362019  0.77447659  0.71229107    -0.01700
C2730       C  0.64831983  0.75080287  0.71559293     0.05200
N2731       N  0.66958899  0.75074727  0.73907283     0.67700
H2732       H  0.63658396  0.70918465  0.69703532     0.16600
H2733       H  0.61881650  0.79123073  0.68562253     0.16300
N2734       N  0.58496746  0.74915260  0.64500178     0.75400
O2735       O  0.66234487  0.73463776  0.76655243    -0.38100
O2736       O  0.69393898  0.75922389  0.72662018    -0.38000
O2737       O  0.56121765  0.74196432  0.65883778    -0.38700
O2738       O  0.59084926  0.76155833  0.61447793    -0.38800
C2739       C  0.64180591  0.74716855  0.84823462    -0.11100
C2740       C  0.61390812  0.72826275  0.83976310     0.05900
C2741       C  0.60082965  0.73416439  0.80995769    -0.06400
C2742       C  0.61603231  0.75801323  0.78843257    -0.07100
C2743       C  0.64428409  0.77634829  0.79595945    -0.01700
C2744       C  0.65702507  0.77113119  0.82678564     0.05200
N2745       N  0.68589076  0.78863056  0.83532620     0.67700
H2746       H  0.65217271  0.74295192  0.87096707     0.16600
H2747       H  0.60549230  0.76248540  0.76617827     0.16300
N2748       N  0.57181580  0.71690229  0.80209344     0.75400
O2749       O  0.70331207  0.77998836  0.82776331    -0.38100
O2750       O  0.69216597  0.80706912  0.85955764    -0.38000
O2751       O  0.55375394  0.72165262  0.81783886    -0.38700
O2752       O  0.56479074  0.70116780  0.77462020    -0.38800
loop_ 
_geom_bond_atom_site_label_1 
_geom_bond_atom_site_label_2 
_geom_bond_distance 
_geom_bond_site_symmetry_2 
_ccdc_geom_bond_type 
C1            H2   1.107       .  S
C1            C7   1.536       .  S
C1            C6   1.538       .  S
C1            C5   1.541       .  S
C3            H4   1.108       .  S
C3            C9   1.536       .  S
C3            C8   1.536       .  S
C3           C10   1.536       .  S
C5            C8   1.375       .  D
C5          C290   1.495       .  S
C6            C9   1.378       .  D
C6          C307   1.487       .  S
C7           C10   1.377       .  D
C7          C335   1.483       .  S
C8          C262   1.486       .  S
C9          C279   1.493       .  S
C10         C321   1.487       .  S
O11          C14   1.267       .  A
O11         Cd16   2.478       .  S
C12          O21   1.262       .  A
C12          O17   1.265       .  A
C12         C754   1.466   1_545  S
O13          C19   1.265       .  A
O13         Cd16   2.483       .  S
C14          O22   1.264       .  A
C14         C155   1.463       .  S
C15          O20   1.263       .  A
C15          O18   1.265       .  A
C15         C248   1.477       .  S
Cd16         O23   2.435       .  S
Cd16         O22   2.434       .  S
Cd16         O21   2.454       .  S
Cd16         O17   2.492       .  S
Cd16         O20   2.419       .  S
Cd16         O18   2.491       .  S
C19          O23   1.264       .  A
C19         C389   1.462   1_554  S
O24          C27   1.268       .  A
O24         Cd29   2.479       .  S
C25          O34   1.263       .  A
C25          O30   1.264       .  A
C25        C1429   1.469       .  S
O26          C32   1.266       .  A
O26         Cd29   2.497       .  S
C27          O35   1.266       .  A
C27         C129   1.468       .  S
C28          O33   1.264       .  A
C28          O31   1.265       .  A
C28         C234   1.485       .  S
Cd29         O36   2.440       .  S
Cd29         O35   2.452       .  S
Cd29         O34   2.460       .  S
Cd29         O30   2.500       .  S
Cd29         O33   2.485       .  S
Cd29         O31   2.475       .  S
C32          O36   1.262       .  A
C32         C428   1.465       .  S
O37          C40   1.267       .  A
O37         Cd42   2.473       .  S
C38          O47   1.262       .  A
C38          O43   1.266       .  A
C38         C105   1.462       .  S
O39          C45   1.268       .  A
O39         Cd42   2.490       .  S
C40          O48   1.267       .  A
C40         C739   1.469   1_545  S
C41          O46   1.265       .  A
C41          O44   1.264       .  A
C41         C220   1.477       .  S
Cd42         O49   2.422       .  S
Cd42         O48   2.463       .  S
Cd42         O47   2.425       .  S
Cd42         O43   2.491       .  S
Cd42         O46   2.453       .  S
Cd42         O44   2.480       .  S
C45          O49   1.262       .  A
C45         C363   1.462       .  S
O50          C53   1.266       .  A
O50         Cd55   2.503       .  S
C51          O60   1.265       .  A
C51          O56   1.267       .  A
C51         C728   1.469       .  S
O52          C58   1.266       .  A
O52         Cd55   2.484       .  S
C53          O61   1.262       .  A
C53        C1401   1.469   1_455  S
C54          O59   1.264       .  A
C54          O57   1.266       .  A
C54         C293   1.481       .  S
Cd55         O62   2.444       .  S
Cd55         O61   2.456       .  S
Cd55         O60   2.459       .  S
Cd55         O56   2.482       .  S
Cd55         O59   2.456       .  S
Cd55         O57   2.479       .  S
C58          O62   1.263       .  A
C58         C415   1.464       .  S
O63          C66   1.265       .  A
O63         Cd68   2.490       .  S
C64          O73   1.265       .  A
C64          O69   1.267       .  A
C64        C1455   1.466   1_455  S
O65          C71   1.266       .  A
O65         Cd68   2.486       .  S
C66          O74   1.263       .  A
C66         C700   1.466       .  S
C67          O72   1.265       .  A
C67          O70   1.264       .  A
C67         C265   1.481       .  S
Cd68         O75   2.444       .  S
Cd68         O74   2.455       .  S
Cd68         O73   2.448       .  S
Cd68         O69   2.478       .  S
Cd68         O72   2.466       .  S
Cd68         O70   2.467       .  S
C71          O75   1.263       .  A
C71         C402   1.464   1_554  S
O76          C79   1.267       .  A
O76         Cd81   2.480       .  S
C77          O86   1.263       .  A
C77          O82   1.265       .  A
C77          C92   1.466       .  S
O78          C84   1.265       .  A
O78         Cd81   2.492       .  S
C79          O87   1.265       .  A
C79        C1440   1.466       .  S
C80          O85   1.266       .  A
C80          O83   1.264       .  A
C80         C206   1.481       .  S
Cd81         O88   2.445       .  S
Cd81         O87   2.447       .  S
Cd81         O86   2.454       .  S
Cd81         O82   2.494       .  S
Cd81         O85   2.485       .  S
Cd81         O83   2.445       .  S
C84          O88   1.263       .  A
C84         C376   1.465   1_554  S
O89          C92   1.265       .  A
O89         Cd94   2.489       .  S
C90          O99   1.264       .  A
C90          O95   1.267       .  A
C90         C832   1.464       .  S
O91          C97   1.266       .  A
O91         Cd94   2.493       .  S
C92         O100   1.263       .  A
C93          O98   1.266       .  A
C93          O96   1.265       .  A
C93         C276   1.480       .  S
Cd94        O101   2.440       .  S
Cd94        O100   2.452       .  S
Cd94         O99   2.440       .  S
Cd94         O95   2.480       .  S
Cd94         O98   2.482       .  S
Cd94         O96   2.446       .  S
C97         O101   1.263       .  A
C97         C480   1.465   1_554  S
O102        C105   1.265       .  A
O102       Cd107   2.500       .  S
C103        O112   1.266       .  A
C103        O108   1.267       .  A
C103       C1494   1.465   1_455  S
O104        C110   1.265       .  A
O104       Cd107   2.485       .  S
C105        O113   1.261       .  A
C106        O111   1.262       .  A
C106        O109   1.265       .  A
C106        C332   1.475       .  S
Cd107       O114   2.432       .  S
Cd107       O113   2.436       .  S
Cd107       O112   2.443       .  S
Cd107       O108   2.474       .  S
Cd107       O111   2.441       .  S
Cd107       O109   2.470       .  S
C110        O114   1.264       .  A
C110        C506   1.462       .  S
O115        C118   1.267       .  A
O115       Cd120   2.481       .  S
C116        O125   1.263       .  A
C116        O121   1.266       .  A
C116        C819   1.466   1_545  S
O117        C123   1.265       .  A
O117       Cd120   2.477       .  S
C118        O126   1.264       .  A
C118       C1479   1.465       .  S
C119        O124   1.263       .  A
C119        O122   1.267       .  A
C119        C195   1.482       .  S
Cd120       O127   2.440       .  S
Cd120       O126   2.446       .  S
Cd120       O125   2.443       .  S
Cd120       O121   2.495       .  S
Cd120       O124   2.461       .  S
Cd120       O122   2.475       .  S
C123        O127   1.262       .  A
C123        C493   1.461       .  S
O128        C131   1.265       .  A
O128       Cd133   2.500       .  S
C129        O138   1.266       .  A
C129        O134   1.268       .  A
O130        C136   1.266       .  A
O130       Cd133   2.494       .  S
C131        O139   1.262       .  A
C131        C804   1.466       .  S
C132        O137   1.265       .  A
C132        O135   1.264       .  A
C132        C304   1.479       .  S
Cd133       O140   2.445       .  S
Cd133       O139   2.448       .  S
Cd133       O138   2.452       .  S
Cd133       O134   2.479       .  S
Cd133       O137   2.467       .  S
Cd133       O135   2.468       .  S
C136        O140   1.263       .  A
C136        C441   1.465       .  S
O141        C144   1.267       .  A
O141       Cd146   2.476       .  S
C142        O151   1.261       .  A
C142        O147   1.264       .  A
C142       C1533   1.462       .  S
O143        C149   1.265       .  A
O143       Cd146   2.474       .  S
C144        O152   1.265       .  A
C144        C778   1.464   1_545  S
C145        O150   1.263       .  A
C145        O148   1.266       .  A
C145        C178   1.477       .  S
Cd146       O153   2.441       .  S
Cd146       O152   2.443       .  S
Cd146       O151   2.447       .  S
Cd146       O147   2.487       .  S
Cd146       O150   2.463       .  S
Cd146       O148   2.447       .  S
C149        O153   1.263       .  A
C149        C467   1.461   1_554  S
O154        C157   1.265       .  A
O154       Cd159   2.478       .  S
C155        O164   1.265       .  A
C155        O160   1.268       .  A
O156        C162   1.267       .  A
O156       Cd159   2.495       .  S
C157        O165   1.263       .  A
C157       C1518   1.462   1_455  S
C158        O163   1.265       .  A
C158        O161   1.265       .  A
C158        C318   1.482       .  S
Cd159       O166   2.425       .  S
Cd159       O165   2.443       .  S
Cd159       O164   2.432       .  S
Cd159       O160   2.472       .  S
Cd159       O163   2.476       .  S
Cd159       O161   2.467       .  S
C162        O166   1.262       .  A
C162        C454   1.462   1_554  S
C167        H168   1.104       .  S
C167        C173   1.542       .  S
C167        C172   1.534       .  S
C167        C171   1.539       .  S
C169        H170   1.111       .  S
C169        C175   1.537       .  S
C169        C174   1.534       .  S
C169        C176   1.538       .  S
C171        C174   1.374       .  D
C171        C209   1.485       .  S
C172        C175   1.379       .  D
C172        C251   1.492       .  S
C173        C176   1.379       .  D
C173        C181   1.495       .  S
C174        C237   1.493       .  S
C175        C223   1.486       .  S
C176        C192   1.485       .  S
C177        C178   1.397       .  A
C177        C182   1.397       .  A
C177        H184   1.082       .  S
C178        C179   1.410       .  A
C179        C180   1.401       .  A
C179        N186   1.428       .  S
C180        C181   1.406       .  A
C180        H185   1.082       .  S
C181        C182   1.419       .  A
C182        N183   1.428       .  S
N183        O187   1.262       .  A
N183        O188   1.259       .  A
N186        O190   1.262       .  A
N186        O189   1.262       .  A
C191        C192   1.402       .  A
C191        C196   1.399       .  A
C191        H198   1.082       .  S
C192        C193   1.413       .  A
C193        C194   1.402       .  A
C193        N200   1.431       .  S
C194        C195   1.404       .  A
C194        H199   1.081       .  S
C195        C196   1.413       .  A
C196        N197   1.428       .  S
N197        O201   1.262       .  A
N197        O202   1.262       .  A
N200        O204   1.262       .  A
N200        O203   1.262       .  A
C205        C206   1.406       .  A
C205        C210   1.400       .  A
C205        H212   1.076       .  S
C206        C207   1.411       .  A
C207        C208   1.400       .  A
C207        N214   1.429       .  S
C208        C209   1.404       .  A
C208        H213   1.075       .  S
C209        C210   1.408       .  A
C210        N211   1.430       .  S
N211        O215   1.262       .  A
N211        O216   1.262       .  A
N214        O218   1.262       .  A
N214        O217   1.262       .  A
C219        C220   1.399       .  A
C219        C224   1.396       .  A
C219        H226   1.087       .  S
C220        C221   1.412       .  A
C221        C222   1.401       .  A
C221        N228   1.428       .  S
C222        C223   1.402       .  A
C222        H227   1.087       .  S
C223        C224   1.411       .  A
C224        N225   1.424       .  S
N225        O229   1.260       .  A
N225        O230   1.262       .  A
N228        O232   1.262       .  A
N228        O231   1.262       .  A
C233        C234   1.404       .  A
C233        C238   1.403       .  A
C233        H240   1.081       .  S
C234        C235   1.412       .  A
C235        C236   1.401       .  A
C235        N242   1.429       .  S
C236        C237   1.403       .  A
C236        H241   1.081       .  S
C237        C238   1.414       .  A
C238        N239   1.431       .  S
N239        O243   1.263       .  A
N239        O244   1.262       .  A
N242        O246   1.262       .  A
N242        O245   1.262       .  A
C247        C248   1.400       .  A
C247        C252   1.394       .  A
C247        H254   1.078       .  S
C248        C249   1.410       .  A
C249        C250   1.401       .  A
C249        N256   1.429       .  S
C250        C251   1.407       .  A
C250        H255   1.076       .  S
C251        C252   1.415       .  A
C252        N253   1.428       .  S
N253        O257   1.260       .  A
N253        O258   1.262       .  A
N256        O260   1.262       .  A
N256        O259   1.262       .  A
C261        C262   1.401       .  A
C261        C266   1.399       .  A
C261        H268   1.084       .  S
C262        C263   1.413       .  A
C263        C264   1.401       .  A
C263        N270   1.432       .  S
C264        C265   1.404       .  A
C264        H269   1.084       .  S
C265        C266   1.412       .  A
C266        N267   1.429       .  S
N267        O271   1.262       .  A
N267        O272   1.262       .  A
N270        O274   1.262       .  A
N270        O273   1.262       .  A
C275        C276   1.402       .  A
C275        C280   1.399       .  A
C275        H282   1.077       .  S
C276        C277   1.410       .  A
C277        C278   1.401       .  A
C277        N284   1.429       .  S
C278        C279   1.407       .  A
C278        H283   1.075       .  S
C279        C280   1.412       .  A
C280        N281   1.428       .  S
N281        O285   1.260       .  A
N281        O286   1.262       .  A
N284        O288   1.262       .  A
N284        O287   1.262       .  A
C289        C290   1.407       .  A
C289        C294   1.404       .  A
C289        H296   1.083       .  S
C290        C291   1.412       .  A
C291        C292   1.399       .  A
C291        N298   1.428       .  S
C292        C293   1.402       .  A
C292        H297   1.083       .  S
C293        C294   1.411       .  A
C294        N295   1.430       .  S
N295        O299   1.262       .  A
N295        O300   1.262       .  A
N298        O302   1.261       .  A
N298        O301   1.262       .  A
C303        C304   1.402       .  A
C303        C308   1.400       .  A
C303        H310   1.082       .  S
C304        C305   1.411       .  A
C305        C306   1.400       .  A
C305        N312   1.429       .  S
C306        C307   1.402       .  A
C306        H311   1.082       .  S
C307        C308   1.414       .  A
C308        N309   1.431       .  S
N309        O313   1.262       .  A
N309        O314   1.260       .  A
N312        O316   1.262       .  A
N312        O315   1.262       .  A
C317        C318   1.405       .  A
C317        C322   1.402       .  A
C317        H324   1.079       .  S
C318        C319   1.411       .  A
C319        C320   1.398       .  A
C319        N326   1.429       .  S
C320        C321   1.403       .  A
C320        H325   1.078       .  S
C321        C322   1.413       .  A
C322        N323   1.431       .  S
N323        O327   1.261       .  A
N323        O328   1.260       .  A
N326        O330   1.262       .  A
N326        O329   1.262       .  A
C331        C332   1.404       .  A
C331        C336   1.398       .  A
C331        H338   1.080       .  S
C332        C333   1.408       .  A
C333        C334   1.396       .  A
C333        N340   1.428       .  S
C334        C335   1.404       .  A
C334        H339   1.079       .  S
C335        C336   1.411       .  A
C336        N337   1.429       .  S
N337        O341   1.261       .  A
N337        O342   1.262       .  A
N340        O344   1.262       .  A
N340        O343   1.262       .  A
C345        H346   1.107       .  S
C345        C351   1.536       .  S
C345        C350   1.538       .  S
C345        C349   1.541       .  S
C347        H348   1.108       .  S
C347        C353   1.536       .  S
C347        C352   1.536       .  S
C347        C354   1.536       .  S
C349        C352   1.375       .  D
C349        C634   1.495       .  S
C350        C353   1.378       .  D
C350        C651   1.487       .  S
C351        C354   1.377       .  D
C351        C679   1.483       .  S
C352        C606   1.486       .  S
C353        C623   1.493       .  S
C354        C665   1.487       .  S
O355        C358   1.267       .  A
O355       Cd360   2.478       .  S
C356        O365   1.262       .  A
C356        O361   1.265       .  A
C356       C1098   1.466   1_545  S
O357        C363   1.265       .  A
O357       Cd360   2.483       .  S
C358        O366   1.264       .  A
C358        C499   1.463       .  S
C359        O364   1.263       .  A
C359        O362   1.265       .  A
C359        C592   1.477       .  S
Cd360       O367   2.435       .  S
Cd360       O366   2.434       .  S
Cd360       O365   2.454       .  S
Cd360       O361   2.492       .  S
Cd360       O364   2.419       .  S
Cd360       O362   2.491       .  S
C363        O367   1.264       .  A
O368        C371   1.268       .  A
O368       Cd373   2.479       .  S
C369        O378   1.263       .  A
C369        O374   1.264       .  A
C369       C1773   1.469       .  S
O370        C376   1.266       .  A
O370       Cd373   2.497       .  S
C371        O379   1.266       .  A
C371        C473   1.468       .  S
C372        O377   1.264       .  A
C372        O375   1.265       .  A
C372        C578   1.485       .  S
Cd373       O380   2.440       .  S
Cd373       O379   2.452       .  S
Cd373       O378   2.460       .  S
Cd373       O374   2.500       .  S
Cd373       O377   2.485       .  S
Cd373       O375   2.475       .  S
C376        O380   1.262       .  A
O381        C384   1.267       .  A
O381       Cd386   2.473       .  S
C382        O391   1.262       .  A
C382        O387   1.266       .  A
C382        C449   1.462       .  S
O383        C389   1.268       .  A
O383       Cd386   2.490       .  S
C384        O392   1.267       .  A
C384       C1083   1.469   1_545  S
C385        O390   1.265       .  A
C385        O388   1.264       .  A
C385        C564   1.477       .  S
Cd386       O393   2.422       .  S
Cd386       O392   2.463       .  S
Cd386       O391   2.425       .  S
Cd386       O387   2.491       .  S
Cd386       O390   2.453       .  S
Cd386       O388   2.480       .  S
C389        O393   1.262       .  A
O394        C397   1.266       .  A
O394       Cd399   2.503       .  S
C395        O404   1.265       .  A
C395        O400   1.267       .  A
C395       C1072   1.469       .  S
O396        C402   1.266       .  A
O396       Cd399   2.484       .  S
C397        O405   1.262       .  A
C397       C1745   1.469   1_455  S
C398        O403   1.264       .  A
C398        O401   1.266       .  A
C398        C637   1.481       .  S
Cd399       O406   2.444       .  S
Cd399       O405   2.456       .  S
Cd399       O404   2.459       .  S
Cd399       O400   2.482       .  S
Cd399       O403   2.456       .  S
Cd399       O401   2.479       .  S
C402        O406   1.263       .  A
O407        C410   1.265       .  A
O407       Cd412   2.490       .  S
C408        O417   1.265       .  A
C408        O413   1.267       .  A
C408       C1799   1.466   1_455  S
O409        C415   1.266       .  A
O409       Cd412   2.486       .  S
C410        O418   1.263       .  A
C410       C1044   1.466       .  S
C411        O416   1.265       .  A
C411        O414   1.264       .  A
C411        C609   1.481       .  S
Cd412       O419   2.444       .  S
Cd412       O418   2.455       .  S
Cd412       O417   2.448       .  S
Cd412       O413   2.478       .  S
Cd412       O416   2.466       .  S
Cd412       O414   2.467       .  S
C415        O419   1.263       .  A
O420        C423   1.267       .  A
O420       Cd425   2.480       .  S
C421        O430   1.263       .  A
C421        O426   1.265       .  A
C421        C436   1.466       .  S
O422        C428   1.265       .  A
O422       Cd425   2.492       .  S
C423        O431   1.265       .  A
C423       C1784   1.466       .  S
C424        O429   1.266       .  A
C424        O427   1.264       .  A
C424        C550   1.481       .  S
Cd425       O432   2.445       .  S
Cd425       O431   2.447       .  S
Cd425       O430   2.454       .  S
Cd425       O426   2.494       .  S
Cd425       O429   2.485       .  S
Cd425       O427   2.445       .  S
C428        O432   1.263       .  A
O433        C436   1.265       .  A
O433       Cd438   2.489       .  S
C434        O443   1.264       .  A
C434        O439   1.267       .  A
C434       C1176   1.464       .  S
O435        C441   1.266       .  A
O435       Cd438   2.493       .  S
C436        O444   1.263       .  A
C437        O442   1.266       .  A
C437        O440   1.265       .  A
C437        C620   1.480       .  S
Cd438       O445   2.440       .  S
Cd438       O444   2.452       .  S
Cd438       O443   2.440       .  S
Cd438       O439   2.480       .  S
Cd438       O442   2.482       .  S
Cd438       O440   2.446       .  S
C441        O445   1.263       .  A
O446        C449   1.265       .  A
O446       Cd451   2.500       .  S
C447        O456   1.266       .  A
C447        O452   1.267       .  A
C447       C1838   1.465   1_455  S
O448        C454   1.265       .  A
O448       Cd451   2.485       .  S
C449        O457   1.261       .  A
C450        O455   1.262       .  A
C450        O453   1.265       .  A
C450        C676   1.475       .  S
Cd451       O458   2.432       .  S
Cd451       O457   2.436       .  S
Cd451       O456   2.443       .  S
Cd451       O452   2.474       .  S
Cd451       O455   2.441       .  S
Cd451       O453   2.470       .  S
C454        O458   1.264       .  A
O459        C462   1.267       .  A
O459       Cd464   2.481       .  S
C460        O469   1.263       .  A
C460        O465   1.266       .  A
C460       C1163   1.466   1_545  S
O461        C467   1.265       .  A
O461       Cd464   2.477       .  S
C462        O470   1.264       .  A
C462       C1823   1.465       .  S
C463        O468   1.263       .  A
C463        O466   1.267       .  A
C463        C539   1.482       .  S
Cd464       O471   2.440       .  S
Cd464       O470   2.446       .  S
Cd464       O469   2.443       .  S
Cd464       O465   2.495       .  S
Cd464       O468   2.461       .  S
Cd464       O466   2.475       .  S
C467        O471   1.262       .  A
O472        C475   1.265       .  A
O472       Cd477   2.500       .  S
C473        O482   1.266       .  A
C473        O478   1.268       .  A
O474        C480   1.266       .  A
O474       Cd477   2.494       .  S
C475        O483   1.262       .  A
C475       C1148   1.466       .  S
C476        O481   1.265       .  A
C476        O479   1.264       .  A
C476        C648   1.479       .  S
Cd477       O484   2.445       .  S
Cd477       O483   2.448       .  S
Cd477       O482   2.452       .  S
Cd477       O478   2.479       .  S
Cd477       O481   2.467       .  S
Cd477       O479   2.468       .  S
C480        O484   1.263       .  A
O485        C488   1.267       .  A
O485       Cd490   2.476       .  S
C486        O495   1.261       .  A
C486        O491   1.264       .  A
C486       C1877   1.462       .  S
O487        C493   1.265       .  A
O487       Cd490   2.474       .  S
C488        O496   1.265       .  A
C488       C1122   1.464   1_545  S
C489        O494   1.263       .  A
C489        O492   1.266       .  A
C489        C522   1.477       .  S
Cd490       O497   2.441       .  S
Cd490       O496   2.443       .  S
Cd490       O495   2.447       .  S
Cd490       O491   2.487       .  S
Cd490       O494   2.463       .  S
Cd490       O492   2.447       .  S
C493        O497   1.263       .  A
O498        C501   1.265       .  A
O498       Cd503   2.478       .  S
C499        O508   1.265       .  A
C499        O504   1.268       .  A
O500        C506   1.267       .  A
O500       Cd503   2.495       .  S
C501        O509   1.263       .  A
C501       C1862   1.462   1_455  S
C502        O507   1.265       .  A
C502        O505   1.265       .  A
C502        C662   1.482       .  S
Cd503       O510   2.425       .  S
Cd503       O509   2.443       .  S
Cd503       O508   2.432       .  S
Cd503       O504   2.472       .  S
Cd503       O507   2.476       .  S
Cd503       O505   2.467       .  S
C506        O510   1.262       .  A
C511        H512   1.104       .  S
C511        C517   1.542       .  S
C511        C516   1.534       .  S
C511        C515   1.539       .  S
C513        H514   1.111       .  S
C513        C519   1.537       .  S
C513        C518   1.534       .  S
C513        C520   1.538       .  S
C515        C518   1.374       .  D
C515        C553   1.485       .  S
C516        C519   1.379       .  D
C516        C595   1.492       .  S
C517        C520   1.379       .  D
C517        C525   1.495       .  S
C518        C581   1.493       .  S
C519        C567   1.486       .  S
C520        C536   1.485       .  S
C521        C522   1.397       .  A
C521        C526   1.397       .  A
C521        H528   1.082       .  S
C522        C523   1.410       .  A
C523        C524   1.401       .  A
C523        N530   1.428       .  S
C524        C525   1.406       .  A
C524        H529   1.082       .  S
C525        C526   1.419       .  A
C526        N527   1.428       .  S
N527        O531   1.262       .  A
N527        O532   1.259       .  A
N530        O534   1.262       .  A
N530        O533   1.262       .  A
C535        C536   1.402       .  A
C535        C540   1.399       .  A
C535        H542   1.082       .  S
C536        C537   1.413       .  A
C537        C538   1.402       .  A
C537        N544   1.431       .  S
C538        C539   1.404       .  A
C538        H543   1.081       .  S
C539        C540   1.413       .  A
C540        N541   1.428       .  S
N541        O545   1.262       .  A
N541        O546   1.262       .  A
N544        O548   1.262       .  A
N544        O547   1.262       .  A
C549        C550   1.406       .  A
C549        C554   1.400       .  A
C549        H556   1.076       .  S
C550        C551   1.411       .  A
C551        C552   1.400       .  A
C551        N558   1.429       .  S
C552        C553   1.404       .  A
C552        H557   1.075       .  S
C553        C554   1.408       .  A
C554        N555   1.430       .  S
N555        O559   1.262       .  A
N555        O560   1.262       .  A
N558        O562   1.262       .  A
N558        O561   1.262       .  A
C563        C564   1.399       .  A
C563        C568   1.396       .  A
C563        H570   1.087       .  S
C564        C565   1.412       .  A
C565        C566   1.401       .  A
C565        N572   1.428       .  S
C566        C567   1.402       .  A
C566        H571   1.087       .  S
C567        C568   1.411       .  A
C568        N569   1.424       .  S
N569        O573   1.260       .  A
N569        O574   1.262       .  A
N572        O576   1.262       .  A
N572        O575   1.262       .  A
C577        C578   1.404       .  A
C577        C582   1.403       .  A
C577        H584   1.081       .  S
C578        C579   1.412       .  A
C579        C580   1.401       .  A
C579        N586   1.429       .  S
C580        C581   1.403       .  A
C580        H585   1.081       .  S
C581        C582   1.414       .  A
C582        N583   1.431       .  S
N583        O587   1.263       .  A
N583        O588   1.262       .  A
N586        O590   1.262       .  A
N586        O589   1.262       .  A
C591        C592   1.400       .  A
C591        C596   1.394       .  A
C591        H598   1.078       .  S
C592        C593   1.410       .  A
C593        C594   1.401       .  A
C593        N600   1.429       .  S
C594        C595   1.407       .  A
C594        H599   1.076       .  S
C595        C596   1.415       .  A
C596        N597   1.428       .  S
N597        O601   1.260       .  A
N597        O602   1.262       .  A
N600        O604   1.262       .  A
N600        O603   1.262       .  A
C605        C606   1.401       .  A
C605        C610   1.399       .  A
C605        H612   1.084       .  S
C606        C607   1.413       .  A
C607        C608   1.401       .  A
C607        N614   1.432       .  S
C608        C609   1.404       .  A
C608        H613   1.084       .  S
C609        C610   1.412       .  A
C610        N611   1.429       .  S
N611        O615   1.262       .  A
N611        O616   1.262       .  A
N614        O618   1.262       .  A
N614        O617   1.262       .  A
C619        C620   1.402       .  A
C619        C624   1.399       .  A
C619        H626   1.077       .  S
C620        C621   1.410       .  A
C621        C622   1.401       .  A
C621        N628   1.429       .  S
C622        C623   1.407       .  A
C622        H627   1.075       .  S
C623        C624   1.412       .  A
C624        N625   1.428       .  S
N625        O629   1.260       .  A
N625        O630   1.262       .  A
N628        O632   1.262       .  A
N628        O631   1.262       .  A
C633        C634   1.407       .  A
C633        C638   1.404       .  A
C633        H640   1.083       .  S
C634        C635   1.412       .  A
C635        C636   1.399       .  A
C635        N642   1.428       .  S
C636        C637   1.402       .  A
C636        H641   1.083       .  S
C637        C638   1.411       .  A
C638        N639   1.430       .  S
N639        O643   1.262       .  A
N639        O644   1.262       .  A
N642        O646   1.261       .  A
N642        O645   1.262       .  A
C647        C648   1.402       .  A
C647        C652   1.400       .  A
C647        H654   1.082       .  S
C648        C649   1.411       .  A
C649        C650   1.400       .  A
C649        N656   1.429       .  S
C650        C651   1.402       .  A
C650        H655   1.082       .  S
C651        C652   1.414       .  A
C652        N653   1.431       .  S
N653        O657   1.262       .  A
N653        O658   1.260       .  A
N656        O660   1.262       .  A
N656        O659   1.262       .  A
C661        C662   1.405       .  A
C661        C666   1.402       .  A
C661        H668   1.080       .  S
C662        C663   1.411       .  A
C663        C664   1.398       .  A
C663        N670   1.429       .  S
C664        C665   1.403       .  A
C664        H669   1.078       .  S
C665        C666   1.413       .  A
C666        N667   1.431       .  S
N667        O671   1.261       .  A
N667        O672   1.260       .  A
N670        O674   1.262       .  A
N670        O673   1.262       .  A
C675        C676   1.404       .  A
C675        C680   1.398       .  A
C675        H682   1.080       .  S
C676        C677   1.408       .  A
C677        C678   1.396       .  A
C677        N684   1.428       .  S
C678        C679   1.404       .  A
C678        H683   1.079       .  S
C679        C680   1.411       .  A
C680        N681   1.429       .  S
N681        O685   1.261       .  A
N681        O686   1.262       .  A
N684        O688   1.262       .  A
N684        O687   1.262       .  A
C689        H690   1.107       .  S
C689        C695   1.536       .  S
C689        C694   1.538       .  S
C689        C693   1.541       .  S
C691        H692   1.108       .  S
C691        C697   1.536       .  S
C691        C696   1.536       .  S
C691        C698   1.536       .  S
C693        C696   1.375       .  D
C693        C978   1.495       .  S
C694        C697   1.378       .  D
C694        C995   1.487       .  S
C695        C698   1.377       .  D
C695       C1023   1.483       .  S
C696        C950   1.486       .  S
C697        C967   1.493       .  S
C698       C1009   1.487       .  S
O699        C702   1.267       .  A
O699       Cd704   2.478       .  S
C700        O709   1.262       .  A
C700        O705   1.265       .  A
O701        C707   1.265       .  A
O701       Cd704   2.483       .  S
C702        O710   1.264       .  A
C702        C843   1.463       .  S
C703        O708   1.263       .  A
C703        O706   1.265       .  A
C703        C936   1.477       .  S
Cd704       O711   2.435       .  S
Cd704       O710   2.434       .  S
Cd704       O709   2.454       .  S
Cd704       O705   2.492       .  S
Cd704       O708   2.419       .  S
Cd704       O706   2.491       .  S
C707        O711   1.264       .  A
C707       C1077   1.462   1_554  S
O712        C715   1.268       .  A
O712       Cd717   2.479       .  S
C713        O722   1.263       .  A
C713        O718   1.264       .  A
C713       C2117   1.469       .  S
O714        C720   1.266       .  A
O714       Cd717   2.497       .  S
C715        O723   1.266       .  A
C715        C817   1.468       .  S
C716        O721   1.264       .  A
C716        O719   1.265       .  A
C716        C922   1.485       .  S
Cd717       O724   2.440       .  S
Cd717       O723   2.452       .  S
Cd717       O722   2.460       .  S
Cd717       O718   2.500       .  S
Cd717       O721   2.485       .  S
Cd717       O719   2.475       .  S
C720        O724   1.262       .  A
C720       C1116   1.465       .  S
O725        C728   1.267       .  A
O725       Cd730   2.473       .  S
C726        O735   1.262       .  A
C726        O731   1.266       .  A
C726        C793   1.462       .  S
O727        C733   1.268       .  A
O727       Cd730   2.490       .  S
C728        O736   1.267       .  A
C729        O734   1.265       .  A
C729        O732   1.264       .  A
C729        C908   1.477       .  S
Cd730       O737   2.422       .  S
Cd730       O736   2.463       .  S
Cd730       O735   2.425       .  S
Cd730       O731   2.491       .  S
Cd730       O734   2.453       .  S
Cd730       O732   2.480       .  S
C733        O737   1.262       .  A
C733       C1051   1.462       .  S
O738        C741   1.266       .  A
O738       Cd743   2.503       .  S
C739        O748   1.265       .  A
C739        O744   1.267       .  A
O740        C746   1.266       .  A
O740       Cd743   2.484       .  S
C741        O749   1.262       .  A
C741       C2089   1.469   1_455  S
C742        O747   1.264       .  A
C742        O745   1.266       .  A
C742        C981   1.481       .  S
Cd743       O750   2.444       .  S
Cd743       O749   2.456       .  S
Cd743       O748   2.459       .  S
Cd743       O744   2.482       .  S
Cd743       O747   2.456       .  S
Cd743       O745   2.479       .  S
C746        O750   1.263       .  A
C746       C1103   1.464       .  S
O751        C754   1.265       .  A
O751       Cd756   2.490       .  S
C752        O761   1.265       .  A
C752        O757   1.267       .  A
C752       C2143   1.466   1_455  S
O753        C759   1.266       .  A
O753       Cd756   2.486       .  S
C754        O762   1.263       .  A
C755        O760   1.265       .  A
C755        O758   1.264       .  A
C755        C953   1.481       .  S
Cd756       O763   2.444       .  S
Cd756       O762   2.455       .  S
Cd756       O761   2.448       .  S
Cd756       O757   2.478       .  S
Cd756       O760   2.466       .  S
Cd756       O758   2.467       .  S
C759        O763   1.263       .  A
C759       C1090   1.464   1_554  S
O764        C767   1.267       .  A
O764       Cd769   2.480       .  S
C765        O774   1.263       .  A
C765        O770   1.265       .  A
C765        C780   1.466       .  S
O766        C772   1.265       .  A
O766       Cd769   2.492       .  S
C767        O775   1.265       .  A
C767       C2128   1.466       .  S
C768        O773   1.266       .  A
C768        O771   1.264       .  A
C768        C894   1.481       .  S
Cd769       O776   2.445       .  S
Cd769       O775   2.447       .  S
Cd769       O774   2.454       .  S
Cd769       O770   2.494       .  S
Cd769       O773   2.485       .  S
Cd769       O771   2.445       .  S
C772        O776   1.263       .  A
C772       C1064   1.465   1_554  S
O777        C780   1.265       .  A
O777       Cd782   2.489       .  S
C778        O787   1.264       .  A
C778        O783   1.267       .  A
O779        C785   1.266       .  A
O779       Cd782   2.493       .  S
C780        O788   1.263       .  A
C781        O786   1.266       .  A
C781        O784   1.265       .  A
C781        C964   1.480       .  S
Cd782       O789   2.440       .  S
Cd782       O788   2.452       .  S
Cd782       O787   2.440       .  S
Cd782       O783   2.480       .  S
Cd782       O786   2.482       .  S
Cd782       O784   2.446       .  S
C785        O789   1.263       .  A
C785       C1168   1.465   1_554  S
O790        C793   1.265       .  A
O790       Cd795   2.500       .  S
C791        O800   1.266       .  A
C791        O796   1.267       .  A
C791       C2182   1.465   1_455  S
O792        C798   1.265       .  A
O792       Cd795   2.485       .  S
C793        O801   1.261       .  A
C794        O799   1.262       .  A
C794        O797   1.265       .  A
C794       C1020   1.475       .  S
Cd795       O802   2.432       .  S
Cd795       O801   2.436       .  S
Cd795       O800   2.443       .  S
Cd795       O796   2.474       .  S
Cd795       O799   2.441       .  S
Cd795       O797   2.470       .  S
C798        O802   1.264       .  A
C798       C1194   1.462       .  S
O803        C806   1.267       .  A
O803       Cd808   2.481       .  S
C804        O813   1.263       .  A
C804        O809   1.266       .  A
O805        C811   1.265       .  A
O805       Cd808   2.477       .  S
C806        O814   1.264       .  A
C806       C2167   1.465       .  S
C807        O812   1.263       .  A
C807        O810   1.267       .  A
C807        C883   1.482       .  S
Cd808       O815   2.440       .  S
Cd808       O814   2.446       .  S
Cd808       O813   2.443       .  S
Cd808       O809   2.495       .  S
Cd808       O812   2.461       .  S
Cd808       O810   2.475       .  S
C811        O815   1.262       .  A
C811       C1181   1.461       .  S
O816        C819   1.265       .  A
O816       Cd821   2.500       .  S
C817        O826   1.266       .  A
C817        O822   1.268       .  A
O818        C824   1.266       .  A
O818       Cd821   2.494       .  S
C819        O827   1.262       .  A
C820        O825   1.265       .  A
C820        O823   1.264       .  A
C820        C992   1.479       .  S
Cd821       O828   2.445       .  S
Cd821       O827   2.448       .  S
Cd821       O826   2.452       .  S
Cd821       O822   2.479       .  S
Cd821       O825   2.467       .  S
Cd821       O823   2.468       .  S
C824        O828   1.263       .  A
C824       C1129   1.465       .  S
O829        C832   1.267       .  A
O829       Cd834   2.476       .  S
C830        O839   1.261       .  A
C830        O835   1.264       .  A
C830       C2221   1.462       .  S
O831        C837   1.265       .  A
O831       Cd834   2.474       .  S
C832        O840   1.265       .  A
C833        O838   1.263       .  A
C833        O836   1.266       .  A
C833        C866   1.477       .  S
Cd834       O841   2.441       .  S
Cd834       O840   2.443       .  S
Cd834       O839   2.447       .  S
Cd834       O835   2.487       .  S
Cd834       O838   2.463       .  S
Cd834       O836   2.447       .  S
C837        O841   1.263       .  A
C837       C1155   1.461   1_554  S
O842        C845   1.265       .  A
O842       Cd847   2.478       .  S
C843        O852   1.265       .  A
C843        O848   1.268       .  A
O844        C850   1.267       .  A
O844       Cd847   2.495       .  S
C845        O853   1.263       .  A
C845       C2206   1.462   1_455  S
C846        O851   1.265       .  A
C846        O849   1.265       .  A
C846       C1006   1.482       .  S
Cd847       O854   2.425       .  S
Cd847       O853   2.443       .  S
Cd847       O852   2.432       .  S
Cd847       O848   2.472       .  S
Cd847       O851   2.476       .  S
Cd847       O849   2.467       .  S
C850        O854   1.262       .  A
C850       C1142   1.462   1_554  S
C855        H856   1.104       .  S
C855        C861   1.542       .  S
C855        C860   1.534       .  S
C855        C859   1.539       .  S
C857        H858   1.111       .  S
C857        C863   1.537       .  S
C857        C862   1.534       .  S
C857        C864   1.538       .  S
C859        C862   1.374       .  D
C859        C897   1.485       .  S
C860        C863   1.379       .  D
C860        C939   1.492       .  S
C861        C864   1.379       .  D
C861        C869   1.495       .  S
C862        C925   1.493       .  S
C863        C911   1.486       .  S
C864        C880   1.485       .  S
C865        C866   1.397       .  A
C865        C870   1.397       .  A
C865        H872   1.082       .  S
C866        C867   1.410       .  A
C867        C868   1.401       .  A
C867        N874   1.428       .  S
C868        C869   1.406       .  A
C868        H873   1.082       .  S
C869        C870   1.419       .  A
C870        N871   1.428       .  S
N871        O875   1.262       .  A
N871        O876   1.259       .  A
N874        O878   1.262       .  A
N874        O877   1.262       .  A
C879        C880   1.402       .  A
C879        C884   1.399       .  A
C879        H886   1.082       .  S
C880        C881   1.413       .  A
C881        C882   1.402       .  A
C881        N888   1.431       .  S
C882        C883   1.404       .  A
C882        H887   1.081       .  S
C883        C884   1.413       .  A
C884        N885   1.428       .  S
N885        O889   1.262       .  A
N885        O890   1.262       .  A
N888        O892   1.262       .  A
N888        O891   1.262       .  A
C893        C894   1.406       .  A
C893        C898   1.400       .  A
C893        H900   1.076       .  S
C894        C895   1.411       .  A
C895        C896   1.400       .  A
C895        N902   1.429       .  S
C896        C897   1.404       .  A
C896        H901   1.075       .  S
C897        C898   1.408       .  A
C898        N899   1.430       .  S
N899        O903   1.262       .  A
N899        O904   1.262       .  A
N902        O906   1.262       .  A
N902        O905   1.262       .  A
C907        C908   1.399       .  A
C907        C912   1.396       .  A
C907        H914   1.087       .  S
C908        C909   1.412       .  A
C909        C910   1.401       .  A
C909        N916   1.428       .  S
C910        C911   1.402       .  A
C910        H915   1.087       .  S
C911        C912   1.411       .  A
C912        N913   1.424       .  S
N913        O917   1.260       .  A
N913        O918   1.262       .  A
N916        O920   1.262       .  A
N916        O919   1.262       .  A
C921        C922   1.404       .  A
C921        C926   1.403       .  A
C921        H928   1.081       .  S
C922        C923   1.412       .  A
C923        C924   1.401       .  A
C923        N930   1.429       .  S
C924        C925   1.403       .  A
C924        H929   1.081       .  S
C925        C926   1.414       .  A
C926        N927   1.431       .  S
N927        O931   1.263       .  A
N927        O932   1.262       .  A
N930        O934   1.262       .  A
N930        O933   1.262       .  A
C935        C936   1.400       .  A
C935        C940   1.394       .  A
C935        H942   1.078       .  S
C936        C937   1.410       .  A
C937        C938   1.401       .  A
C937        N944   1.429       .  S
C938        C939   1.407       .  A
C938        H943   1.076       .  S
C939        C940   1.415       .  A
C940        N941   1.428       .  S
N941        O945   1.260       .  A
N941        O946   1.262       .  A
N944        O948   1.262       .  A
N944        O947   1.262       .  A
C949        C950   1.401       .  A
C949        C954   1.399       .  A
C949        H956   1.084       .  S
C950        C951   1.413       .  A
C951        C952   1.401       .  A
C951        N958   1.432       .  S
C952        C953   1.404       .  A
C952        H957   1.084       .  S
C953        C954   1.412       .  A
C954        N955   1.429       .  S
N955        O959   1.262       .  A
N955        O960   1.262       .  A
N958        O962   1.262       .  A
N958        O961   1.262       .  A
C963        C964   1.402       .  A
C963        C968   1.399       .  A
C963        H970   1.077       .  S
C964        C965   1.410       .  A
C965        C966   1.401       .  A
C965        N972   1.429       .  S
C966        C967   1.407       .  A
C966        H971   1.075       .  S
C967        C968   1.412       .  A
C968        N969   1.428       .  S
N969        O973   1.260       .  A
N969        O974   1.262       .  A
N972        O976   1.262       .  A
N972        O975   1.262       .  A
C977        C978   1.407       .  A
C977        C982   1.404       .  A
C977        H984   1.083       .  S
C978        C979   1.412       .  A
C979        C980   1.399       .  A
C979        N986   1.428       .  S
C980        C981   1.402       .  A
C980        H985   1.083       .  S
C981        C982   1.411       .  A
C982        N983   1.430       .  S
N983        O987   1.262       .  A
N983        O988   1.262       .  A
N986        O990   1.261       .  A
N986        O989   1.262       .  A
C991        C992   1.402       .  A
C991        C996   1.400       .  A
C991        H998   1.082       .  S
C992        C993   1.411       .  A
C993        C994   1.400       .  A
C993       N1000   1.429       .  S
C994        C995   1.402       .  A
C994        H999   1.082       .  S
C995        C996   1.414       .  A
C996        N997   1.431       .  S
N997       O1001   1.262       .  A
N997       O1002   1.260       .  A
N1000      O1004   1.262       .  A
N1000      O1003   1.262       .  A
C1005      C1006   1.405       .  A
C1005      C1010   1.402       .  A
C1005      H1012   1.079       .  S
C1006      C1007   1.411       .  A
C1007      C1008   1.398       .  A
C1007      N1014   1.429       .  S
C1008      C1009   1.403       .  A
C1008      H1013   1.078       .  S
C1009      C1010   1.413       .  A
C1010      N1011   1.431       .  S
N1011      O1015   1.261       .  A
N1011      O1016   1.260       .  A
N1014      O1018   1.262       .  A
N1014      O1017   1.262       .  A
C1019      C1020   1.404       .  A
C1019      C1024   1.398       .  A
C1019      H1026   1.080       .  S
C1020      C1021   1.408       .  A
C1021      C1022   1.396       .  A
C1021      N1028   1.428       .  S
C1022      C1023   1.404       .  A
C1022      H1027   1.079       .  S
C1023      C1024   1.411       .  A
C1024      N1025   1.429       .  S
N1025      O1029   1.261       .  A
N1025      O1030   1.262       .  A
N1028      O1032   1.262       .  A
N1028      O1031   1.262       .  A
C1033      H1034   1.107       .  S
C1033      C1039   1.536       .  S
C1033      C1038   1.538       .  S
C1033      C1037   1.541       .  S
C1035      H1036   1.108       .  S
C1035      C1041   1.536       .  S
C1035      C1040   1.536       .  S
C1035      C1042   1.536       .  S
C1037      C1040   1.375       .  D
C1037      C1322   1.495       .  S
C1038      C1041   1.378       .  D
C1038      C1339   1.487       .  S
C1039      C1042   1.377       .  D
C1039      C1367   1.483       .  S
C1040      C1294   1.486       .  S
C1041      C1311   1.493       .  S
C1042      C1353   1.487       .  S
O1043      C1046   1.267       .  A
O1043     Cd1048   2.478       .  S
C1044      O1053   1.262       .  A
C1044      O1049   1.265       .  A
O1045      C1051   1.265       .  A
O1045     Cd1048   2.483       .  S
C1046      O1054   1.264       .  A
C1046      C1187   1.463       .  S
C1047      O1052   1.263       .  A
C1047      O1050   1.265       .  A
C1047      C1280   1.477       .  S
Cd1048     O1055   2.435       .  S
Cd1048     O1054   2.434       .  S
Cd1048     O1053   2.454       .  S
Cd1048     O1049   2.492       .  S
Cd1048     O1052   2.419       .  S
Cd1048     O1050   2.491       .  S
C1051      O1055   1.264       .  A
O1056      C1059   1.268       .  A
O1056     Cd1061   2.479       .  S
C1057      O1066   1.263       .  A
C1057      O1062   1.264       .  A
C1057      C2461   1.469       .  S
O1058      C1064   1.266       .  A
O1058     Cd1061   2.497       .  S
C1059      O1067   1.266       .  A
C1059      C1161   1.468       .  S
C1060      O1065   1.264       .  A
C1060      O1063   1.265       .  A
C1060      C1266   1.485       .  S
Cd1061     O1068   2.440       .  S
Cd1061     O1067   2.452       .  S
Cd1061     O1066   2.460       .  S
Cd1061     O1062   2.500       .  S
Cd1061     O1065   2.485       .  S
Cd1061     O1063   2.475       .  S
C1064      O1068   1.262       .  A
O1069      C1072   1.267       .  A
O1069     Cd1074   2.473       .  S
C1070      O1079   1.262       .  A
C1070      O1075   1.266       .  A
C1070      C1137   1.462       .  S
O1071      C1077   1.268       .  A
O1071     Cd1074   2.490       .  S
C1072      O1080   1.267       .  A
C1073      O1078   1.265       .  A
C1073      O1076   1.264       .  A
C1073      C1252   1.477       .  S
Cd1074     O1081   2.422       .  S
Cd1074     O1080   2.463       .  S
Cd1074     O1079   2.425       .  S
Cd1074     O1075   2.491       .  S
Cd1074     O1078   2.453       .  S
Cd1074     O1076   2.480       .  S
C1077      O1081   1.262       .  A
O1082      C1085   1.266       .  A
O1082     Cd1087   2.503       .  S
C1083      O1092   1.265       .  A
C1083      O1088   1.267       .  A
O1084      C1090   1.266       .  A
O1084     Cd1087   2.484       .  S
C1085      O1093   1.262       .  A
C1085      C2433   1.469   1_455  S
C1086      O1091   1.264       .  A
C1086      O1089   1.266       .  A
C1086      C1325   1.481       .  S
Cd1087     O1094   2.444       .  S
Cd1087     O1093   2.456       .  S
Cd1087     O1092   2.459       .  S
Cd1087     O1088   2.482       .  S
Cd1087     O1091   2.456       .  S
Cd1087     O1089   2.479       .  S
C1090      O1094   1.263       .  A
O1095      C1098   1.265       .  A
O1095     Cd1100   2.490       .  S
C1096      O1105   1.265       .  A
C1096      O1101   1.267       .  A
C1096      C2487   1.466   1_455  S
O1097      C1103   1.266       .  A
O1097     Cd1100   2.486       .  S
C1098      O1106   1.263       .  A
C1099      O1104   1.265       .  A
C1099      O1102   1.264       .  A
C1099      C1297   1.481       .  S
Cd1100     O1107   2.444       .  S
Cd1100     O1106   2.455       .  S
Cd1100     O1105   2.448       .  S
Cd1100     O1101   2.478       .  S
Cd1100     O1104   2.466       .  S
Cd1100     O1102   2.467       .  S
C1103      O1107   1.263       .  A
O1108      C1111   1.267       .  A
O1108     Cd1113   2.480       .  S
C1109      O1118   1.263       .  A
C1109      O1114   1.265       .  A
C1109      C1124   1.466       .  S
O1110      C1116   1.265       .  A
O1110     Cd1113   2.492       .  S
C1111      O1119   1.265       .  A
C1111      C2472   1.466       .  S
C1112      O1117   1.266       .  A
C1112      O1115   1.264       .  A
C1112      C1238   1.481       .  S
Cd1113     O1120   2.445       .  S
Cd1113     O1119   2.447       .  S
Cd1113     O1118   2.454       .  S
Cd1113     O1114   2.494       .  S
Cd1113     O1117   2.485       .  S
Cd1113     O1115   2.445       .  S
C1116      O1120   1.263       .  A
O1121      C1124   1.265       .  A
O1121     Cd1126   2.489       .  S
C1122      O1131   1.264       .  A
C1122      O1127   1.267       .  A
O1123      C1129   1.266       .  A
O1123     Cd1126   2.493       .  S
C1124      O1132   1.263       .  A
C1125      O1130   1.266       .  A
C1125      O1128   1.265       .  A
C1125      C1308   1.480       .  S
Cd1126     O1133   2.440       .  S
Cd1126     O1132   2.452       .  S
Cd1126     O1131   2.440       .  S
Cd1126     O1127   2.480       .  S
Cd1126     O1130   2.482       .  S
Cd1126     O1128   2.446       .  S
C1129      O1133   1.263       .  A
O1134      C1137   1.265       .  A
O1134     Cd1139   2.500       .  S
C1135      O1144   1.266       .  A
C1135      O1140   1.267       .  A
C1135      C2526   1.465   1_455  S
O1136      C1142   1.265       .  A
O1136     Cd1139   2.485       .  S
C1137      O1145   1.261       .  A
C1138      O1143   1.262       .  A
C1138      O1141   1.265       .  A
C1138      C1364   1.475       .  S
Cd1139     O1146   2.432       .  S
Cd1139     O1145   2.436       .  S
Cd1139     O1144   2.443       .  S
Cd1139     O1140   2.474       .  S
Cd1139     O1143   2.441       .  S
Cd1139     O1141   2.470       .  S
C1142      O1146   1.264       .  A
O1147      C1150   1.267       .  A
O1147     Cd1152   2.481       .  S
C1148      O1157   1.263       .  A
C1148      O1153   1.266       .  A
O1149      C1155   1.265       .  A
O1149     Cd1152   2.477       .  S
C1150      O1158   1.264       .  A
C1150      C2511   1.465       .  S
C1151      O1156   1.263       .  A
C1151      O1154   1.267       .  A
C1151      C1227   1.482       .  S
Cd1152     O1159   2.440       .  S
Cd1152     O1158   2.446       .  S
Cd1152     O1157   2.443       .  S
Cd1152     O1153   2.495       .  S
Cd1152     O1156   2.461       .  S
Cd1152     O1154   2.475       .  S
C1155      O1159   1.262       .  A
O1160      C1163   1.265       .  A
O1160     Cd1165   2.500       .  S
C1161      O1170   1.266       .  A
C1161      O1166   1.268       .  A
O1162      C1168   1.266       .  A
O1162     Cd1165   2.494       .  S
C1163      O1171   1.262       .  A
C1164      O1169   1.265       .  A
C1164      O1167   1.264       .  A
C1164      C1336   1.479       .  S
Cd1165     O1172   2.445       .  S
Cd1165     O1171   2.448       .  S
Cd1165     O1170   2.452       .  S
Cd1165     O1166   2.479       .  S
Cd1165     O1169   2.467       .  S
Cd1165     O1167   2.468       .  S
C1168      O1172   1.263       .  A
O1173      C1176   1.267       .  A
O1173     Cd1178   2.476       .  S
C1174      O1183   1.261       .  A
C1174      O1179   1.264       .  A
C1174      C2565   1.462       .  S
O1175      C1181   1.265       .  A
O1175     Cd1178   2.474       .  S
C1176      O1184   1.265       .  A
C1177      O1182   1.263       .  A
C1177      O1180   1.266       .  A
C1177      C1210   1.477       .  S
Cd1178     O1185   2.441       .  S
Cd1178     O1184   2.443       .  S
Cd1178     O1183   2.447       .  S
Cd1178     O1179   2.487       .  S
Cd1178     O1182   2.463       .  S
Cd1178     O1180   2.447       .  S
C1181      O1185   1.263       .  A
O1186      C1189   1.265       .  A
O1186     Cd1191   2.478       .  S
C1187      O1196   1.265       .  A
C1187      O1192   1.268       .  A
O1188      C1194   1.267       .  A
O1188     Cd1191   2.495       .  S
C1189      O1197   1.263       .  A
C1189      C2550   1.462   1_455  S
C1190      O1195   1.265       .  A
C1190      O1193   1.265       .  A
C1190      C1350   1.482       .  S
Cd1191     O1198   2.425       .  S
Cd1191     O1197   2.443       .  S
Cd1191     O1196   2.432       .  S
Cd1191     O1192   2.472       .  S
Cd1191     O1195   2.476       .  S
Cd1191     O1193   2.467       .  S
C1194      O1198   1.262       .  A
C1199      H1200   1.104       .  S
C1199      C1205   1.542       .  S
C1199      C1204   1.534       .  S
C1199      C1203   1.539       .  S
C1201      H1202   1.111       .  S
C1201      C1207   1.537       .  S
C1201      C1206   1.534       .  S
C1201      C1208   1.538       .  S
C1203      C1206   1.374       .  D
C1203      C1241   1.485       .  S
C1204      C1207   1.379       .  D
C1204      C1283   1.492       .  S
C1205      C1208   1.379       .  D
C1205      C1213   1.495       .  S
C1206      C1269   1.493       .  S
C1207      C1255   1.486       .  S
C1208      C1224   1.485       .  S
C1209      C1210   1.397       .  A
C1209      C1214   1.397       .  A
C1209      H1216   1.082       .  S
C1210      C1211   1.410       .  A
C1211      C1212   1.401       .  A
C1211      N1218   1.428       .  S
C1212      C1213   1.406       .  A
C1212      H1217   1.082       .  S
C1213      C1214   1.419       .  A
C1214      N1215   1.428       .  S
N1215      O1219   1.262       .  A
N1215      O1220   1.259       .  A
N1218      O1222   1.262       .  A
N1218      O1221   1.262       .  A
C1223      C1224   1.402       .  A
C1223      C1228   1.399       .  A
C1223      H1230   1.082       .  S
C1224      C1225   1.413       .  A
C1225      C1226   1.402       .  A
C1225      N1232   1.431       .  S
C1226      C1227   1.404       .  A
C1226      H1231   1.081       .  S
C1227      C1228   1.413       .  A
C1228      N1229   1.428       .  S
N1229      O1233   1.262       .  A
N1229      O1234   1.262       .  A
N1232      O1236   1.262       .  A
N1232      O1235   1.262       .  A
C1237      C1238   1.406       .  A
C1237      C1242   1.400       .  A
C1237      H1244   1.076       .  S
C1238      C1239   1.411       .  A
C1239      C1240   1.400       .  A
C1239      N1246   1.429       .  S
C1240      C1241   1.404       .  A
C1240      H1245   1.075       .  S
C1241      C1242   1.408       .  A
C1242      N1243   1.430       .  S
N1243      O1247   1.262       .  A
N1243      O1248   1.262       .  A
N1246      O1250   1.262       .  A
N1246      O1249   1.262       .  A
C1251      C1252   1.399       .  A
C1251      C1256   1.396       .  A
C1251      H1258   1.087       .  S
C1252      C1253   1.412       .  A
C1253      C1254   1.401       .  A
C1253      N1260   1.428       .  S
C1254      C1255   1.402       .  A
C1254      H1259   1.087       .  S
C1255      C1256   1.411       .  A
C1256      N1257   1.424       .  S
N1257      O1261   1.260       .  A
N1257      O1262   1.262       .  A
N1260      O1264   1.262       .  A
N1260      O1263   1.262       .  A
C1265      C1266   1.404       .  A
C1265      C1270   1.403       .  A
C1265      H1272   1.081       .  S
C1266      C1267   1.412       .  A
C1267      C1268   1.401       .  A
C1267      N1274   1.429       .  S
C1268      C1269   1.403       .  A
C1268      H1273   1.081       .  S
C1269      C1270   1.414       .  A
C1270      N1271   1.431       .  S
N1271      O1275   1.263       .  A
N1271      O1276   1.262       .  A
N1274      O1278   1.262       .  A
N1274      O1277   1.262       .  A
C1279      C1280   1.400       .  A
C1279      C1284   1.394       .  A
C1279      H1286   1.078       .  S
C1280      C1281   1.410       .  A
C1281      C1282   1.401       .  A
C1281      N1288   1.429       .  S
C1282      C1283   1.407       .  A
C1282      H1287   1.076       .  S
C1283      C1284   1.415       .  A
C1284      N1285   1.428       .  S
N1285      O1289   1.260       .  A
N1285      O1290   1.262       .  A
N1288      O1292   1.262       .  A
N1288      O1291   1.262       .  A
C1293      C1294   1.401       .  A
C1293      C1298   1.399       .  A
C1293      H1300   1.084       .  S
C1294      C1295   1.413       .  A
C1295      C1296   1.401       .  A
C1295      N1302   1.432       .  S
C1296      C1297   1.404       .  A
C1296      H1301   1.084       .  S
C1297      C1298   1.412       .  A
C1298      N1299   1.429       .  S
N1299      O1303   1.262       .  A
N1299      O1304   1.262       .  A
N1302      O1306   1.262       .  A
N1302      O1305   1.262       .  A
C1307      C1308   1.402       .  A
C1307      C1312   1.399       .  A
C1307      H1314   1.077       .  S
C1308      C1309   1.410       .  A
C1309      C1310   1.401       .  A
C1309      N1316   1.429       .  S
C1310      C1311   1.407       .  A
C1310      H1315   1.075       .  S
C1311      C1312   1.412       .  A
C1312      N1313   1.428       .  S
N1313      O1317   1.260       .  A
N1313      O1318   1.262       .  A
N1316      O1320   1.262       .  A
N1316      O1319   1.262       .  A
C1321      C1322   1.407       .  A
C1321      C1326   1.404       .  A
C1321      H1328   1.083       .  S
C1322      C1323   1.412       .  A
C1323      C1324   1.399       .  A
C1323      N1330   1.428       .  S
C1324      C1325   1.402       .  A
C1324      H1329   1.083       .  S
C1325      C1326   1.411       .  A
C1326      N1327   1.430       .  S
N1327      O1331   1.262       .  A
N1327      O1332   1.262       .  A
N1330      O1334   1.261       .  A
N1330      O1333   1.262       .  A
C1335      C1336   1.402       .  A
C1335      C1340   1.400       .  A
C1335      H1342   1.082       .  S
C1336      C1337   1.411       .  A
C1337      C1338   1.400       .  A
C1337      N1344   1.429       .  S
C1338      C1339   1.402       .  A
C1338      H1343   1.082       .  S
C1339      C1340   1.414       .  A
C1340      N1341   1.431       .  S
N1341      O1345   1.262       .  A
N1341      O1346   1.260       .  A
N1344      O1348   1.262       .  A
N1344      O1347   1.262       .  A
C1349      C1350   1.405       .  A
C1349      C1354   1.402       .  A
C1349      H1356   1.080       .  S
C1350      C1351   1.411       .  A
C1351      C1352   1.398       .  A
C1351      N1358   1.429       .  S
C1352      C1353   1.403       .  A
C1352      H1357   1.078       .  S
C1353      C1354   1.413       .  A
C1354      N1355   1.431       .  S
N1355      O1359   1.261       .  A
N1355      O1360   1.260       .  A
N1358      O1362   1.262       .  A
N1358      O1361   1.262       .  A
C1363      C1364   1.404       .  A
C1363      C1368   1.398       .  A
C1363      H1370   1.080       .  S
C1364      C1365   1.408       .  A
C1365      C1366   1.396       .  A
C1365      N1372   1.428       .  S
C1366      C1367   1.404       .  A
C1366      H1371   1.079       .  S
C1367      C1368   1.411       .  A
C1368      N1369   1.429       .  S
N1369      O1373   1.261       .  A
N1369      O1374   1.262       .  A
N1372      O1376   1.262       .  A
N1372      O1375   1.262       .  A
C1377      H1378   1.107       .  S
C1377      C1383   1.536       .  S
C1377      C1382   1.538       .  S
C1377      C1381   1.541       .  S
C1379      H1380   1.108       .  S
C1379      C1385   1.536       .  S
C1379      C1384   1.536       .  S
C1379      C1386   1.536       .  S
C1381      C1384   1.375       .  D
C1381      C1666   1.495       .  S
C1382      C1385   1.378       .  D
C1382      C1683   1.487       .  S
C1383      C1386   1.377       .  D
C1383      C1711   1.483       .  S
C1384      C1638   1.486       .  S
C1385      C1655   1.493       .  S
C1386      C1697   1.487       .  S
O1387      C1390   1.267       .  A
O1387     Cd1392   2.478       .  S
C1388      O1397   1.262       .  A
C1388      O1393   1.265       .  A
C1388      C2130   1.466   1_545  S
O1389      C1395   1.265       .  A
O1389     Cd1392   2.483       .  S
C1390      O1398   1.264       .  A
C1390      C1531   1.463       .  S
C1391      O1396   1.263       .  A
C1391      O1394   1.265       .  A
C1391      C1624   1.477       .  S
Cd1392     O1399   2.435       .  S
Cd1392     O1398   2.434       .  S
Cd1392     O1397   2.454       .  S
Cd1392     O1393   2.492       .  S
Cd1392     O1396   2.419       .  S
Cd1392     O1394   2.491       .  S
C1395      O1399   1.264       .  A
C1395      C1765   1.462   1_554  S
O1400      C1403   1.268       .  A
O1400     Cd1405   2.479       .  S
C1401      O1410   1.263       .  A
C1401      O1406   1.264       .  A
O1402      C1408   1.266       .  A
O1402     Cd1405   2.497       .  S
C1403      O1411   1.266       .  A
C1403      C1505   1.468       .  S
C1404      O1409   1.264       .  A
C1404      O1407   1.265       .  A
C1404      C1610   1.485       .  S
Cd1405     O1412   2.440       .  S
Cd1405     O1411   2.452       .  S
Cd1405     O1410   2.460       .  S
Cd1405     O1406   2.500       .  S
Cd1405     O1409   2.485       .  S
Cd1405     O1407   2.475       .  S
C1408      O1412   1.262       .  A
C1408      C1804   1.465       .  S
O1413      C1416   1.267       .  A
O1413     Cd1418   2.473       .  S
C1414      O1423   1.262       .  A
C1414      O1419   1.266       .  A
C1414      C1481   1.462       .  S
O1415      C1421   1.268       .  A
O1415     Cd1418   2.490       .  S
C1416      O1424   1.267       .  A
C1416      C2115   1.469   1_545  S
C1417      O1422   1.265       .  A
C1417      O1420   1.264       .  A
C1417      C1596   1.477       .  S
Cd1418     O1425   2.422       .  S
Cd1418     O1424   2.463       .  S
Cd1418     O1423   2.425       .  S
Cd1418     O1419   2.491       .  S
Cd1418     O1422   2.453       .  S
Cd1418     O1420   2.480       .  S
C1421      O1425   1.262       .  A
C1421      C1739   1.462       .  S
O1426      C1429   1.266       .  A
O1426     Cd1431   2.503       .  S
C1427      O1436   1.265       .  A
C1427      O1432   1.267       .  A
C1427      C2104   1.469       .  S
O1428      C1434   1.266       .  A
O1428     Cd1431   2.484       .  S
C1429      O1437   1.262       .  A
C1430      O1435   1.264       .  A
C1430      O1433   1.266       .  A
C1430      C1669   1.481       .  S
Cd1431     O1438   2.444       .  S
Cd1431     O1437   2.456       .  S
Cd1431     O1436   2.459       .  S
Cd1431     O1432   2.482       .  S
Cd1431     O1435   2.456       .  S
Cd1431     O1433   2.479       .  S
C1434      O1438   1.263       .  A
C1434      C1791   1.464       .  S
O1439      C1442   1.265       .  A
O1439     Cd1444   2.490       .  S
C1440      O1449   1.265       .  A
C1440      O1445   1.267       .  A
O1441      C1447   1.266       .  A
O1441     Cd1444   2.486       .  S
C1442      O1450   1.263       .  A
C1442      C2076   1.466       .  S
C1443      O1448   1.265       .  A
C1443      O1446   1.264       .  A
C1443      C1641   1.481       .  S
Cd1444     O1451   2.444       .  S
Cd1444     O1450   2.455       .  S
Cd1444     O1449   2.448       .  S
Cd1444     O1445   2.478       .  S
Cd1444     O1448   2.466       .  S
Cd1444     O1446   2.467       .  S
C1447      O1451   1.263       .  A
C1447      C1778   1.464   1_554  S
O1452      C1455   1.267       .  A
O1452     Cd1457   2.480       .  S
C1453      O1462   1.263       .  A
C1453      O1458   1.265       .  A
C1453      C1468   1.466       .  S
O1454      C1460   1.265       .  A
O1454     Cd1457   2.492       .  S
C1455      O1463   1.265       .  A
C1456      O1461   1.266       .  A
C1456      O1459   1.264       .  A
C1456      C1582   1.481       .  S
Cd1457     O1464   2.445       .  S
Cd1457     O1463   2.447       .  S
Cd1457     O1462   2.454       .  S
Cd1457     O1458   2.494       .  S
Cd1457     O1461   2.485       .  S
Cd1457     O1459   2.445       .  S
C1460      O1464   1.263       .  A
C1460      C1752   1.465   1_554  S
O1465      C1468   1.265       .  A
O1465     Cd1470   2.489       .  S
C1466      O1475   1.264       .  A
C1466      O1471   1.267       .  A
C1466      C2208   1.464       .  S
O1467      C1473   1.266       .  A
O1467     Cd1470   2.493       .  S
C1468      O1476   1.263       .  A
C1469      O1474   1.266       .  A
C1469      O1472   1.265       .  A
C1469      C1652   1.480       .  S
Cd1470     O1477   2.440       .  S
Cd1470     O1476   2.452       .  S
Cd1470     O1475   2.440       .  S
Cd1470     O1471   2.480       .  S
Cd1470     O1474   2.482       .  S
Cd1470     O1472   2.446       .  S
C1473      O1477   1.263       .  A
C1473      C1856   1.465   1_554  S
O1478      C1481   1.265       .  A
O1478     Cd1483   2.500       .  S
C1479      O1488   1.266       .  A
C1479      O1484   1.267       .  A
O1480      C1486   1.265       .  A
O1480     Cd1483   2.485       .  S
C1481      O1489   1.261       .  A
C1482      O1487   1.262       .  A
C1482      O1485   1.265       .  A
C1482      C1708   1.475       .  S
Cd1483     O1490   2.432       .  S
Cd1483     O1489   2.436       .  S
Cd1483     O1488   2.443       .  S
Cd1483     O1484   2.474       .  S
Cd1483     O1487   2.441       .  S
Cd1483     O1485   2.470       .  S
C1486      O1490   1.264       .  A
C1486      C1882   1.462       .  S
O1491      C1494   1.267       .  A
O1491     Cd1496   2.481       .  S
C1492      O1501   1.263       .  A
C1492      O1497   1.266       .  A
C1492      C2195   1.466   1_545  S
O1493      C1499   1.265       .  A
O1493     Cd1496   2.477       .  S
C1494      O1502   1.264       .  A
C1495      O1500   1.263       .  A
C1495      O1498   1.267       .  A
C1495      C1571   1.482       .  S
Cd1496     O1503   2.440       .  S
Cd1496     O1502   2.446       .  S
Cd1496     O1501   2.443       .  S
Cd1496     O1497   2.495       .  S
Cd1496     O1500   2.461       .  S
Cd1496     O1498   2.475       .  S
C1499      O1503   1.262       .  A
C1499      C1869   1.461       .  S
O1504      C1507   1.265       .  A
O1504     Cd1509   2.500       .  S
C1505      O1514   1.266       .  A
C1505      O1510   1.268       .  A
O1506      C1512   1.266       .  A
O1506     Cd1509   2.494       .  S
C1507      O1515   1.262       .  A
C1507      C2180   1.466       .  S
C1508      O1513   1.265       .  A
C1508      O1511   1.264       .  A
C1508      C1680   1.479       .  S
Cd1509     O1516   2.445       .  S
Cd1509     O1515   2.448       .  S
Cd1509     O1514   2.452       .  S
Cd1509     O1510   2.479       .  S
Cd1509     O1513   2.467       .  S
Cd1509     O1511   2.468       .  S
C1512      O1516   1.263       .  A
C1512      C1817   1.465       .  S
O1517      C1520   1.267       .  A
O1517     Cd1522   2.476       .  S
C1518      O1527   1.261       .  A
C1518      O1523   1.264       .  A
O1519      C1525   1.265       .  A
O1519     Cd1522   2.474       .  S
C1520      O1528   1.265       .  A
C1520      C2154   1.464   1_545  S
C1521      O1526   1.263       .  A
C1521      O1524   1.266       .  A
C1521      C1554   1.477       .  S
Cd1522     O1529   2.441       .  S
Cd1522     O1528   2.443       .  S
Cd1522     O1527   2.447       .  S
Cd1522     O1523   2.487       .  S
Cd1522     O1526   2.463       .  S
Cd1522     O1524   2.447       .  S
C1525      O1529   1.263       .  A
C1525      C1843   1.461   1_554  S
O1530      C1533   1.265       .  A
O1530     Cd1535   2.478       .  S
C1531      O1540   1.265       .  A
C1531      O1536   1.268       .  A
O1532      C1538   1.267       .  A
O1532     Cd1535   2.495       .  S
C1533      O1541   1.263       .  A
C1534      O1539   1.265       .  A
C1534      O1537   1.265       .  A
C1534      C1694   1.482       .  S
Cd1535     O1542   2.425       .  S
Cd1535     O1541   2.443       .  S
Cd1535     O1540   2.432       .  S
Cd1535     O1536   2.472       .  S
Cd1535     O1539   2.476       .  S
Cd1535     O1537   2.467       .  S
C1538      O1542   1.262       .  A
C1538      C1830   1.462   1_554  S
C1543      H1544   1.104       .  S
C1543      C1549   1.542       .  S
C1543      C1548   1.534       .  S
C1543      C1547   1.539       .  S
C1545      H1546   1.111       .  S
C1545      C1551   1.537       .  S
C1545      C1550   1.534       .  S
C1545      C1552   1.538       .  S
C1547      C1550   1.374       .  D
C1547      C1585   1.485       .  S
C1548      C1551   1.379       .  D
C1548      C1627   1.492       .  S
C1549      C1552   1.379       .  D
C1549      C1557   1.495       .  S
C1550      C1613   1.493       .  S
C1551      C1599   1.486       .  S
C1552      C1568   1.485       .  S
C1553      C1554   1.397       .  A
C1553      C1558   1.397       .  A
C1553      H1560   1.082       .  S
C1554      C1555   1.410       .  A
C1555      C1556   1.401       .  A
C1555      N1562   1.428       .  S
C1556      C1557   1.406       .  A
C1556      H1561   1.082       .  S
C1557      C1558   1.419       .  A
C1558      N1559   1.428       .  S
N1559      O1563   1.262       .  A
N1559      O1564   1.259       .  A
N1562      O1566   1.262       .  A
N1562      O1565   1.262       .  A
C1567      C1568   1.402       .  A
C1567      C1572   1.399       .  A
C1567      H1574   1.082       .  S
C1568      C1569   1.413       .  A
C1569      C1570   1.402       .  A
C1569      N1576   1.431       .  S
C1570      C1571   1.404       .  A
C1570      H1575   1.081       .  S
C1571      C1572   1.413       .  A
C1572      N1573   1.428       .  S
N1573      O1577   1.262       .  A
N1573      O1578   1.262       .  A
N1576      O1580   1.262       .  A
N1576      O1579   1.262       .  A
C1581      C1582   1.406       .  A
C1581      C1586   1.400       .  A
C1581      H1588   1.076       .  S
C1582      C1583   1.411       .  A
C1583      C1584   1.400       .  A
C1583      N1590   1.429       .  S
C1584      C1585   1.404       .  A
C1584      H1589   1.075       .  S
C1585      C1586   1.408       .  A
C1586      N1587   1.430       .  S
N1587      O1591   1.262       .  A
N1587      O1592   1.262       .  A
N1590      O1594   1.262       .  A
N1590      O1593   1.262       .  A
C1595      C1596   1.399       .  A
C1595      C1600   1.396       .  A
C1595      H1602   1.087       .  S
C1596      C1597   1.412       .  A
C1597      C1598   1.401       .  A
C1597      N1604   1.428       .  S
C1598      C1599   1.402       .  A
C1598      H1603   1.087       .  S
C1599      C1600   1.411       .  A
C1600      N1601   1.424       .  S
N1601      O1605   1.260       .  A
N1601      O1606   1.262       .  A
N1604      O1608   1.262       .  A
N1604      O1607   1.262       .  A
C1609      C1610   1.404       .  A
C1609      C1614   1.403       .  A
C1609      H1616   1.081       .  S
C1610      C1611   1.412       .  A
C1611      C1612   1.401       .  A
C1611      N1618   1.429       .  S
C1612      C1613   1.403       .  A
C1612      H1617   1.081       .  S
C1613      C1614   1.414       .  A
C1614      N1615   1.431       .  S
N1615      O1619   1.263       .  A
N1615      O1620   1.262       .  A
N1618      O1622   1.262       .  A
N1618      O1621   1.262       .  A
C1623      C1624   1.400       .  A
C1623      C1628   1.394       .  A
C1623      H1630   1.078       .  S
C1624      C1625   1.410       .  A
C1625      C1626   1.401       .  A
C1625      N1632   1.429       .  S
C1626      C1627   1.407       .  A
C1626      H1631   1.076       .  S
C1627      C1628   1.415       .  A
C1628      N1629   1.428       .  S
N1629      O1633   1.260       .  A
N1629      O1634   1.262       .  A
N1632      O1636   1.262       .  A
N1632      O1635   1.262       .  A
C1637      C1638   1.401       .  A
C1637      C1642   1.399       .  A
C1637      H1644   1.084       .  S
C1638      C1639   1.413       .  A
C1639      C1640   1.401       .  A
C1639      N1646   1.432       .  S
C1640      C1641   1.404       .  A
C1640      H1645   1.084       .  S
C1641      C1642   1.412       .  A
C1642      N1643   1.429       .  S
N1643      O1647   1.262       .  A
N1643      O1648   1.262       .  A
N1646      O1650   1.262       .  A
N1646      O1649   1.262       .  A
C1651      C1652   1.402       .  A
C1651      C1656   1.399       .  A
C1651      H1658   1.077       .  S
C1652      C1653   1.410       .  A
C1653      C1654   1.401       .  A
C1653      N1660   1.429       .  S
C1654      C1655   1.407       .  A
C1654      H1659   1.075       .  S
C1655      C1656   1.412       .  A
C1656      N1657   1.428       .  S
N1657      O1661   1.260       .  A
N1657      O1662   1.262       .  A
N1660      O1664   1.262       .  A
N1660      O1663   1.262       .  A
C1665      C1666   1.407       .  A
C1665      C1670   1.404       .  A
C1665      H1672   1.083       .  S
C1666      C1667   1.412       .  A
C1667      C1668   1.399       .  A
C1667      N1674   1.428       .  S
C1668      C1669   1.402       .  A
C1668      H1673   1.083       .  S
C1669      C1670   1.411       .  A
C1670      N1671   1.430       .  S
N1671      O1675   1.262       .  A
N1671      O1676   1.262       .  A
N1674      O1678   1.261       .  A
N1674      O1677   1.262       .  A
C1679      C1680   1.402       .  A
C1679      C1684   1.400       .  A
C1679      H1686   1.082       .  S
C1680      C1681   1.411       .  A
C1681      C1682   1.400       .  A
C1681      N1688   1.429       .  S
C1682      C1683   1.402       .  A
C1682      H1687   1.082       .  S
C1683      C1684   1.414       .  A
C1684      N1685   1.431       .  S
N1685      O1689   1.262       .  A
N1685      O1690   1.260       .  A
N1688      O1692   1.262       .  A
N1688      O1691   1.262       .  A
C1693      C1694   1.405       .  A
C1693      C1698   1.402       .  A
C1693      H1700   1.079       .  S
C1694      C1695   1.411       .  A
C1695      C1696   1.398       .  A
C1695      N1702   1.429       .  S
C1696      C1697   1.403       .  A
C1696      H1701   1.078       .  S
C1697      C1698   1.413       .  A
C1698      N1699   1.431       .  S
N1699      O1703   1.261       .  A
N1699      O1704   1.260       .  A
N1702      O1706   1.262       .  A
N1702      O1705   1.262       .  A
C1707      C1708   1.404       .  A
C1707      C1712   1.398       .  A
C1707      H1714   1.080       .  S
C1708      C1709   1.408       .  A
C1709      C1710   1.396       .  A
C1709      N1716   1.428       .  S
C1710      C1711   1.404       .  A
C1710      H1715   1.079       .  S
C1711      C1712   1.411       .  A
C1712      N1713   1.429       .  S
N1713      O1717   1.261       .  A
N1713      O1718   1.262       .  A
N1716      O1720   1.262       .  A
N1716      O1719   1.262       .  A
C1721      H1722   1.107       .  S
C1721      C1727   1.536       .  S
C1721      C1726   1.538       .  S
C1721      C1725   1.541       .  S
C1723      H1724   1.108       .  S
C1723      C1729   1.536       .  S
C1723      C1728   1.536       .  S
C1723      C1730   1.536       .  S
C1725      C1728   1.375       .  D
C1725      C2010   1.495       .  S
C1726      C1729   1.378       .  D
C1726      C2027   1.487       .  S
C1727      C1730   1.377       .  D
C1727      C2055   1.483       .  S
C1728      C1982   1.486       .  S
C1729      C1999   1.493       .  S
C1730      C2041   1.487       .  S
O1731      C1734   1.267       .  A
O1731     Cd1736   2.478       .  S
C1732      O1741   1.262       .  A
C1732      O1737   1.265       .  A
C1732      C2474   1.466   1_545  S
O1733      C1739   1.265       .  A
O1733     Cd1736   2.483       .  S
C1734      O1742   1.264       .  A
C1734      C1875   1.463       .  S
C1735      O1740   1.263       .  A
C1735      O1738   1.265       .  A
C1735      C1968   1.477       .  S
Cd1736     O1743   2.435       .  S
Cd1736     O1742   2.434       .  S
Cd1736     O1741   2.454       .  S
Cd1736     O1737   2.492       .  S
Cd1736     O1740   2.419       .  S
Cd1736     O1738   2.491       .  S
C1739      O1743   1.264       .  A
O1744      C1747   1.268       .  A
O1744     Cd1749   2.479       .  S
C1745      O1754   1.263       .  A
C1745      O1750   1.264       .  A
O1746      C1752   1.266       .  A
O1746     Cd1749   2.497       .  S
C1747      O1755   1.266       .  A
C1747      C1849   1.468       .  S
C1748      O1753   1.264       .  A
C1748      O1751   1.265       .  A
C1748      C1954   1.485       .  S
Cd1749     O1756   2.440       .  S
Cd1749     O1755   2.452       .  S
Cd1749     O1754   2.460       .  S
Cd1749     O1750   2.500       .  S
Cd1749     O1753   2.485       .  S
Cd1749     O1751   2.475       .  S
C1752      O1756   1.262       .  A
O1757      C1760   1.267       .  A
O1757     Cd1762   2.473       .  S
C1758      O1767   1.262       .  A
C1758      O1763   1.266       .  A
C1758      C1825   1.462       .  S
O1759      C1765   1.268       .  A
O1759     Cd1762   2.490       .  S
C1760      O1768   1.267       .  A
C1760      C2459   1.469   1_545  S
C1761      O1766   1.265       .  A
C1761      O1764   1.264       .  A
C1761      C1940   1.477       .  S
Cd1762     O1769   2.422       .  S
Cd1762     O1768   2.463       .  S
Cd1762     O1767   2.425       .  S
Cd1762     O1763   2.491       .  S
Cd1762     O1766   2.453       .  S
Cd1762     O1764   2.480       .  S
C1765      O1769   1.262       .  A
O1770      C1773   1.266       .  A
O1770     Cd1775   2.503       .  S
C1771      O1780   1.265       .  A
C1771      O1776   1.267       .  A
C1771      C2448   1.469       .  S
O1772      C1778   1.266       .  A
O1772     Cd1775   2.484       .  S
C1773      O1781   1.262       .  A
C1774      O1779   1.264       .  A
C1774      O1777   1.266       .  A
C1774      C2013   1.481       .  S
Cd1775     O1782   2.444       .  S
Cd1775     O1781   2.456       .  S
Cd1775     O1780   2.459       .  S
Cd1775     O1776   2.482       .  S
Cd1775     O1779   2.456       .  S
Cd1775     O1777   2.479       .  S
C1778      O1782   1.263       .  A
O1783      C1786   1.265       .  A
O1783     Cd1788   2.490       .  S
C1784      O1793   1.265       .  A
C1784      O1789   1.267       .  A
O1785      C1791   1.266       .  A
O1785     Cd1788   2.486       .  S
C1786      O1794   1.263       .  A
C1786      C2420   1.466       .  S
C1787      O1792   1.265       .  A
C1787      O1790   1.264       .  A
C1787      C1985   1.481       .  S
Cd1788     O1795   2.444       .  S
Cd1788     O1794   2.455       .  S
Cd1788     O1793   2.448       .  S
Cd1788     O1789   2.478       .  S
Cd1788     O1792   2.466       .  S
Cd1788     O1790   2.467       .  S
C1791      O1795   1.263       .  A
O1796      C1799   1.267       .  A
O1796     Cd1801   2.480       .  S
C1797      O1806   1.263       .  A
C1797      O1802   1.265       .  A
C1797      C1812   1.466       .  S
O1798      C1804   1.265       .  A
O1798     Cd1801   2.492       .  S
C1799      O1807   1.265       .  A
C1800      O1805   1.266       .  A
C1800      O1803   1.264       .  A
C1800      C1926   1.481       .  S
Cd1801     O1808   2.445       .  S
Cd1801     O1807   2.447       .  S
Cd1801     O1806   2.454       .  S
Cd1801     O1802   2.494       .  S
Cd1801     O1805   2.485       .  S
Cd1801     O1803   2.445       .  S
C1804      O1808   1.263       .  A
O1809      C1812   1.265       .  A
O1809     Cd1814   2.489       .  S
C1810      O1819   1.264       .  A
C1810      O1815   1.267       .  A
C1810      C2552   1.464       .  S
O1811      C1817   1.266       .  A
O1811     Cd1814   2.493       .  S
C1812      O1820   1.263       .  A
C1813      O1818   1.266       .  A
C1813      O1816   1.265       .  A
C1813      C1996   1.480       .  S
Cd1814     O1821   2.440       .  S
Cd1814     O1820   2.452       .  S
Cd1814     O1819   2.440       .  S
Cd1814     O1815   2.480       .  S
Cd1814     O1818   2.482       .  S
Cd1814     O1816   2.446       .  S
C1817      O1821   1.263       .  A
O1822      C1825   1.265       .  A
O1822     Cd1827   2.500       .  S
C1823      O1832   1.266       .  A
C1823      O1828   1.267       .  A
O1824      C1830   1.265       .  A
O1824     Cd1827   2.485       .  S
C1825      O1833   1.261       .  A
C1826      O1831   1.262       .  A
C1826      O1829   1.265       .  A
C1826      C2052   1.475       .  S
Cd1827     O1834   2.432       .  S
Cd1827     O1833   2.436       .  S
Cd1827     O1832   2.443       .  S
Cd1827     O1828   2.474       .  S
Cd1827     O1831   2.441       .  S
Cd1827     O1829   2.470       .  S
C1830      O1834   1.264       .  A
O1835      C1838   1.267       .  A
O1835     Cd1840   2.481       .  S
C1836      O1845   1.263       .  A
C1836      O1841   1.266       .  A
C1836      C2539   1.466   1_545  S
O1837      C1843   1.265       .  A
O1837     Cd1840   2.477       .  S
C1838      O1846   1.264       .  A
C1839      O1844   1.263       .  A
C1839      O1842   1.267       .  A
C1839      C1915   1.482       .  S
Cd1840     O1847   2.440       .  S
Cd1840     O1846   2.446       .  S
Cd1840     O1845   2.443       .  S
Cd1840     O1841   2.495       .  S
Cd1840     O1844   2.461       .  S
Cd1840     O1842   2.475       .  S
C1843      O1847   1.262       .  A
O1848      C1851   1.265       .  A
O1848     Cd1853   2.500       .  S
C1849      O1858   1.266       .  A
C1849      O1854   1.268       .  A
O1850      C1856   1.266       .  A
O1850     Cd1853   2.494       .  S
C1851      O1859   1.262       .  A
C1851      C2524   1.466       .  S
C1852      O1857   1.265       .  A
C1852      O1855   1.264       .  A
C1852      C2024   1.479       .  S
Cd1853     O1860   2.445       .  S
Cd1853     O1859   2.448       .  S
Cd1853     O1858   2.452       .  S
Cd1853     O1854   2.479       .  S
Cd1853     O1857   2.467       .  S
Cd1853     O1855   2.468       .  S
C1856      O1860   1.263       .  A
O1861      C1864   1.267       .  A
O1861     Cd1866   2.476       .  S
C1862      O1871   1.261       .  A
C1862      O1867   1.264       .  A
O1863      C1869   1.265       .  A
O1863     Cd1866   2.474       .  S
C1864      O1872   1.265       .  A
C1864      C2498   1.464   1_545  S
C1865      O1870   1.263       .  A
C1865      O1868   1.266       .  A
C1865      C1898   1.477       .  S
Cd1866     O1873   2.441       .  S
Cd1866     O1872   2.443       .  S
Cd1866     O1871   2.447       .  S
Cd1866     O1867   2.487       .  S
Cd1866     O1870   2.463       .  S
Cd1866     O1868   2.447       .  S
C1869      O1873   1.263       .  A
O1874      C1877   1.265       .  A
O1874     Cd1879   2.478       .  S
C1875      O1884   1.265       .  A
C1875      O1880   1.268       .  A
O1876      C1882   1.267       .  A
O1876     Cd1879   2.495       .  S
C1877      O1885   1.263       .  A
C1878      O1883   1.265       .  A
C1878      O1881   1.265       .  A
C1878      C2038   1.482       .  S
Cd1879     O1886   2.425       .  S
Cd1879     O1885   2.443       .  S
Cd1879     O1884   2.432       .  S
Cd1879     O1880   2.472       .  S
Cd1879     O1883   2.476       .  S
Cd1879     O1881   2.467       .  S
C1882      O1886   1.262       .  A
C1887      H1888   1.104       .  S
C1887      C1893   1.542       .  S
C1887      C1892   1.534       .  S
C1887      C1891   1.539       .  S
C1889      H1890   1.111       .  S
C1889      C1895   1.537       .  S
C1889      C1894   1.534       .  S
C1889      C1896   1.538       .  S
C1891      C1894   1.374       .  D
C1891      C1929   1.485       .  S
C1892      C1895   1.379       .  D
C1892      C1971   1.492       .  S
C1893      C1896   1.379       .  D
C1893      C1901   1.495       .  S
C1894      C1957   1.493       .  S
C1895      C1943   1.486       .  S
C1896      C1912   1.485       .  S
C1897      C1898   1.397       .  A
C1897      C1902   1.397       .  A
C1897      H1904   1.082       .  S
C1898      C1899   1.410       .  A
C1899      C1900   1.401       .  A
C1899      N1906   1.428       .  S
C1900      C1901   1.406       .  A
C1900      H1905   1.082       .  S
C1901      C1902   1.419       .  A
C1902      N1903   1.428       .  S
N1903      O1907   1.262       .  A
N1903      O1908   1.259       .  A
N1906      O1910   1.262       .  A
N1906      O1909   1.262       .  A
C1911      C1912   1.402       .  A
C1911      C1916   1.399       .  A
C1911      H1918   1.082       .  S
C1912      C1913   1.413       .  A
C1913      C1914   1.402       .  A
C1913      N1920   1.431       .  S
C1914      C1915   1.404       .  A
C1914      H1919   1.081       .  S
C1915      C1916   1.413       .  A
C1916      N1917   1.428       .  S
N1917      O1921   1.262       .  A
N1917      O1922   1.262       .  A
N1920      O1924   1.262       .  A
N1920      O1923   1.262       .  A
C1925      C1926   1.406       .  A
C1925      C1930   1.400       .  A
C1925      H1932   1.076       .  S
C1926      C1927   1.411       .  A
C1927      C1928   1.400       .  A
C1927      N1934   1.429       .  S
C1928      C1929   1.404       .  A
C1928      H1933   1.075       .  S
C1929      C1930   1.408       .  A
C1930      N1931   1.430       .  S
N1931      O1935   1.262       .  A
N1931      O1936   1.262       .  A
N1934      O1938   1.262       .  A
N1934      O1937   1.262       .  A
C1939      C1940   1.399       .  A
C1939      C1944   1.396       .  A
C1939      H1946   1.087       .  S
C1940      C1941   1.412       .  A
C1941      C1942   1.401       .  A
C1941      N1948   1.428       .  S
C1942      C1943   1.402       .  A
C1942      H1947   1.087       .  S
C1943      C1944   1.411       .  A
C1944      N1945   1.424       .  S
N1945      O1949   1.260       .  A
N1945      O1950   1.262       .  A
N1948      O1952   1.262       .  A
N1948      O1951   1.262       .  A
C1953      C1954   1.404       .  A
C1953      C1958   1.403       .  A
C1953      H1960   1.081       .  S
C1954      C1955   1.412       .  A
C1955      C1956   1.401       .  A
C1955      N1962   1.429       .  S
C1956      C1957   1.403       .  A
C1956      H1961   1.081       .  S
C1957      C1958   1.414       .  A
C1958      N1959   1.431       .  S
N1959      O1963   1.263       .  A
N1959      O1964   1.262       .  A
N1962      O1966   1.262       .  A
N1962      O1965   1.262       .  A
C1967      C1968   1.400       .  A
C1967      C1972   1.394       .  A
C1967      H1974   1.078       .  S
C1968      C1969   1.410       .  A
C1969      C1970   1.401       .  A
C1969      N1976   1.429       .  S
C1970      C1971   1.407       .  A
C1970      H1975   1.076       .  S
C1971      C1972   1.415       .  A
C1972      N1973   1.428       .  S
N1973      O1977   1.260       .  A
N1973      O1978   1.262       .  A
N1976      O1980   1.262       .  A
N1976      O1979   1.262       .  A
C1981      C1982   1.401       .  A
C1981      C1986   1.399       .  A
C1981      H1988   1.084       .  S
C1982      C1983   1.413       .  A
C1983      C1984   1.401       .  A
C1983      N1990   1.432       .  S
C1984      C1985   1.404       .  A
C1984      H1989   1.084       .  S
C1985      C1986   1.412       .  A
C1986      N1987   1.429       .  S
N1987      O1991   1.262       .  A
N1987      O1992   1.262       .  A
N1990      O1994   1.262       .  A
N1990      O1993   1.262       .  A
C1995      C1996   1.402       .  A
C1995      C2000   1.399       .  A
C1995      H2002   1.077       .  S
C1996      C1997   1.410       .  A
C1997      C1998   1.401       .  A
C1997      N2004   1.429       .  S
C1998      C1999   1.407       .  A
C1998      H2003   1.075       .  S
C1999      C2000   1.412       .  A
C2000      N2001   1.428       .  S
N2001      O2005   1.260       .  A
N2001      O2006   1.262       .  A
N2004      O2008   1.262       .  A
N2004      O2007   1.262       .  A
C2009      C2010   1.407       .  A
C2009      C2014   1.404       .  A
C2009      H2016   1.083       .  S
C2010      C2011   1.412       .  A
C2011      C2012   1.399       .  A
C2011      N2018   1.428       .  S
C2012      C2013   1.402       .  A
C2012      H2017   1.083       .  S
C2013      C2014   1.411       .  A
C2014      N2015   1.430       .  S
N2015      O2019   1.262       .  A
N2015      O2020   1.262       .  A
N2018      O2022   1.261       .  A
N2018      O2021   1.262       .  A
C2023      C2024   1.402       .  A
C2023      C2028   1.400       .  A
C2023      H2030   1.082       .  S
C2024      C2025   1.411       .  A
C2025      C2026   1.400       .  A
C2025      N2032   1.429       .  S
C2026      C2027   1.402       .  A
C2026      H2031   1.082       .  S
C2027      C2028   1.414       .  A
C2028      N2029   1.431       .  S
N2029      O2033   1.262       .  A
N2029      O2034   1.260       .  A
N2032      O2036   1.262       .  A
N2032      O2035   1.262       .  A
C2037      C2038   1.405       .  A
C2037      C2042   1.402       .  A
C2037      H2044   1.079       .  S
C2038      C2039   1.411       .  A
C2039      C2040   1.398       .  A
C2039      N2046   1.429       .  S
C2040      C2041   1.403       .  A
C2040      H2045   1.078       .  S
C2041      C2042   1.413       .  A
C2042      N2043   1.431       .  S
N2043      O2047   1.261       .  A
N2043      O2048   1.260       .  A
N2046      O2050   1.262       .  A
N2046      O2049   1.262       .  A
C2051      C2052   1.404       .  A
C2051      C2056   1.398       .  A
C2051      H2058   1.080       .  S
C2052      C2053   1.408       .  A
C2053      C2054   1.396       .  A
C2053      N2060   1.428       .  S
C2054      C2055   1.404       .  A
C2054      H2059   1.079       .  S
C2055      C2056   1.411       .  A
C2056      N2057   1.429       .  S
N2057      O2061   1.261       .  A
N2057      O2062   1.262       .  A
N2060      O2064   1.262       .  A
N2060      O2063   1.262       .  A
C2065      H2066   1.107       .  S
C2065      C2071   1.536       .  S
C2065      C2070   1.538       .  S
C2065      C2069   1.541       .  S
C2067      H2068   1.108       .  S
C2067      C2073   1.536       .  S
C2067      C2072   1.536       .  S
C2067      C2074   1.536       .  S
C2069      C2072   1.375       .  D
C2069      C2354   1.495       .  S
C2070      C2073   1.378       .  D
C2070      C2371   1.487       .  S
C2071      C2074   1.377       .  D
C2071      C2399   1.483       .  S
C2072      C2326   1.486       .  S
C2073      C2343   1.493       .  S
C2074      C2385   1.487       .  S
O2075      C2078   1.267       .  A
O2075     Cd2080   2.478       .  S
C2076      O2085   1.262       .  A
C2076      O2081   1.265       .  A
O2077      C2083   1.265       .  A
O2077     Cd2080   2.483       .  S
C2078      O2086   1.264       .  A
C2078      C2219   1.463       .  S
C2079      O2084   1.263       .  A
C2079      O2082   1.265       .  A
C2079      C2312   1.477       .  S
Cd2080     O2087   2.435       .  S
Cd2080     O2086   2.434       .  S
Cd2080     O2085   2.454       .  S
Cd2080     O2081   2.492       .  S
Cd2080     O2084   2.419       .  S
Cd2080     O2082   2.491       .  S
C2083      O2087   1.264       .  A
C2083      C2453   1.462   1_554  S
O2088      C2091   1.268       .  A
O2088     Cd2093   2.479       .  S
C2089      O2098   1.263       .  A
C2089      O2094   1.264       .  A
O2090      C2096   1.266       .  A
O2090     Cd2093   2.497       .  S
C2091      O2099   1.266       .  A
C2091      C2193   1.468       .  S
C2092      O2097   1.264       .  A
C2092      O2095   1.265       .  A
C2092      C2298   1.485       .  S
Cd2093     O2100   2.440       .  S
Cd2093     O2099   2.452       .  S
Cd2093     O2098   2.460       .  S
Cd2093     O2094   2.500       .  S
Cd2093     O2097   2.485       .  S
Cd2093     O2095   2.475       .  S
C2096      O2100   1.262       .  A
C2096      C2492   1.465       .  S
O2101      C2104   1.267       .  A
O2101     Cd2106   2.473       .  S
C2102      O2111   1.262       .  A
C2102      O2107   1.266       .  A
C2102      C2169   1.462       .  S
O2103      C2109   1.268       .  A
O2103     Cd2106   2.490       .  S
C2104      O2112   1.267       .  A
C2105      O2110   1.265       .  A
C2105      O2108   1.264       .  A
C2105      C2284   1.477       .  S
Cd2106     O2113   2.422       .  S
Cd2106     O2112   2.463       .  S
Cd2106     O2111   2.425       .  S
Cd2106     O2107   2.491       .  S
Cd2106     O2110   2.453       .  S
Cd2106     O2108   2.480       .  S
C2109      O2113   1.262       .  A
C2109      C2427   1.462       .  S
O2114      C2117   1.266       .  A
O2114     Cd2119   2.503       .  S
C2115      O2124   1.265       .  A
C2115      O2120   1.267       .  A
O2116      C2122   1.266       .  A
O2116     Cd2119   2.484       .  S
C2117      O2125   1.262       .  A
C2118      O2123   1.264       .  A
C2118      O2121   1.266       .  A
C2118      C2357   1.481       .  S
Cd2119     O2126   2.444       .  S
Cd2119     O2125   2.456       .  S
Cd2119     O2124   2.459       .  S
Cd2119     O2120   2.482       .  S
Cd2119     O2123   2.456       .  S
Cd2119     O2121   2.479       .  S
C2122      O2126   1.263       .  A
C2122      C2479   1.464       .  S
O2127      C2130   1.265       .  A
O2127     Cd2132   2.490       .  S
C2128      O2137   1.265       .  A
C2128      O2133   1.267       .  A
O2129      C2135   1.266       .  A
O2129     Cd2132   2.486       .  S
C2130      O2138   1.263       .  A
C2131      O2136   1.265       .  A
C2131      O2134   1.264       .  A
C2131      C2329   1.481       .  S
Cd2132     O2139   2.444       .  S
Cd2132     O2138   2.455       .  S
Cd2132     O2137   2.448       .  S
Cd2132     O2133   2.478       .  S
Cd2132     O2136   2.466       .  S
Cd2132     O2134   2.467       .  S
C2135      O2139   1.263       .  A
C2135      C2466   1.464   1_554  S
O2140      C2143   1.267       .  A
O2140     Cd2145   2.480       .  S
C2141      O2150   1.263       .  A
C2141      O2146   1.265       .  A
C2141      C2156   1.466       .  S
O2142      C2148   1.265       .  A
O2142     Cd2145   2.492       .  S
C2143      O2151   1.265       .  A
C2144      O2149   1.266       .  A
C2144      O2147   1.264       .  A
C2144      C2270   1.481       .  S
Cd2145     O2152   2.445       .  S
Cd2145     O2151   2.447       .  S
Cd2145     O2150   2.454       .  S
Cd2145     O2146   2.494       .  S
Cd2145     O2149   2.485       .  S
Cd2145     O2147   2.445       .  S
C2148      O2152   1.263       .  A
C2148      C2440   1.465   1_554  S
O2153      C2156   1.265       .  A
O2153     Cd2158   2.489       .  S
C2154      O2163   1.264       .  A
C2154      O2159   1.267       .  A
O2155      C2161   1.266       .  A
O2155     Cd2158   2.493       .  S
C2156      O2164   1.263       .  A
C2157      O2162   1.266       .  A
C2157      O2160   1.265       .  A
C2157      C2340   1.480       .  S
Cd2158     O2165   2.440       .  S
Cd2158     O2164   2.452       .  S
Cd2158     O2163   2.440       .  S
Cd2158     O2159   2.480       .  S
Cd2158     O2162   2.482       .  S
Cd2158     O2160   2.446       .  S
C2161      O2165   1.263       .  A
C2161      C2544   1.465   1_554  S
O2166      C2169   1.265       .  A
O2166     Cd2171   2.500       .  S
C2167      O2176   1.266       .  A
C2167      O2172   1.267       .  A
O2168      C2174   1.265       .  A
O2168     Cd2171   2.485       .  S
C2169      O2177   1.261       .  A
C2170      O2175   1.262       .  A
C2170      O2173   1.265       .  A
C2170      C2396   1.475       .  S
Cd2171     O2178   2.432       .  S
Cd2171     O2177   2.436       .  S
Cd2171     O2176   2.443       .  S
Cd2171     O2172   2.474       .  S
Cd2171     O2175   2.441       .  S
Cd2171     O2173   2.470       .  S
C2174      O2178   1.264       .  A
C2174      C2570   1.462       .  S
O2179      C2182   1.267       .  A
O2179     Cd2184   2.481       .  S
C2180      O2189   1.263       .  A
C2180      O2185   1.266       .  A
O2181      C2187   1.265       .  A
O2181     Cd2184   2.477       .  S
C2182      O2190   1.264       .  A
C2183      O2188   1.263       .  A
C2183      O2186   1.267       .  A
C2183      C2259   1.482       .  S
Cd2184     O2191   2.440       .  S
Cd2184     O2190   2.446       .  S
Cd2184     O2189   2.443       .  S
Cd2184     O2185   2.495       .  S
Cd2184     O2188   2.461       .  S
Cd2184     O2186   2.475       .  S
C2187      O2191   1.262       .  A
C2187      C2557   1.461       .  S
O2192      C2195   1.265       .  A
O2192     Cd2197   2.500       .  S
C2193      O2202   1.266       .  A
C2193      O2198   1.268       .  A
O2194      C2200   1.266       .  A
O2194     Cd2197   2.494       .  S
C2195      O2203   1.262       .  A
C2196      O2201   1.265       .  A
C2196      O2199   1.264       .  A
C2196      C2368   1.479       .  S
Cd2197     O2204   2.445       .  S
Cd2197     O2203   2.448       .  S
Cd2197     O2202   2.452       .  S
Cd2197     O2198   2.479       .  S
Cd2197     O2201   2.467       .  S
Cd2197     O2199   2.468       .  S
C2200      O2204   1.263       .  A
C2200      C2505   1.465       .  S
O2205      C2208   1.267       .  A
O2205     Cd2210   2.476       .  S
C2206      O2215   1.261       .  A
C2206      O2211   1.264       .  A
O2207      C2213   1.265       .  A
O2207     Cd2210   2.474       .  S
C2208      O2216   1.265       .  A
C2209      O2214   1.263       .  A
C2209      O2212   1.266       .  A
C2209      C2242   1.477       .  S
Cd2210     O2217   2.441       .  S
Cd2210     O2216   2.443       .  S
Cd2210     O2215   2.447       .  S
Cd2210     O2211   2.487       .  S
Cd2210     O2214   2.463       .  S
Cd2210     O2212   2.447       .  S
C2213      O2217   1.263       .  A
C2213      C2531   1.461   1_554  S
O2218      C2221   1.265       .  A
O2218     Cd2223   2.478       .  S
C2219      O2228   1.265       .  A
C2219      O2224   1.268       .  A
O2220      C2226   1.267       .  A
O2220     Cd2223   2.495       .  S
C2221      O2229   1.263       .  A
C2222      O2227   1.265       .  A
C2222      O2225   1.265       .  A
C2222      C2382   1.482       .  S
Cd2223     O2230   2.425       .  S
Cd2223     O2229   2.443       .  S
Cd2223     O2228   2.432       .  S
Cd2223     O2224   2.472       .  S
Cd2223     O2227   2.476       .  S
Cd2223     O2225   2.467       .  S
C2226      O2230   1.262       .  A
C2226      C2518   1.462   1_554  S
C2231      H2232   1.104       .  S
C2231      C2237   1.542       .  S
C2231      C2236   1.534       .  S
C2231      C2235   1.539       .  S
C2233      H2234   1.111       .  S
C2233      C2239   1.537       .  S
C2233      C2238   1.534       .  S
C2233      C2240   1.538       .  S
C2235      C2238   1.374       .  D
C2235      C2273   1.485       .  S
C2236      C2239   1.379       .  D
C2236      C2315   1.492       .  S
C2237      C2240   1.379       .  D
C2237      C2245   1.495       .  S
C2238      C2301   1.493       .  S
C2239      C2287   1.486       .  S
C2240      C2256   1.485       .  S
C2241      C2242   1.397       .  A
C2241      C2246   1.397       .  A
C2241      H2248   1.082       .  S
C2242      C2243   1.410       .  A
C2243      C2244   1.401       .  A
C2243      N2250   1.428       .  S
C2244      C2245   1.406       .  A
C2244      H2249   1.082       .  S
C2245      C2246   1.419       .  A
C2246      N2247   1.428       .  S
N2247      O2251   1.262       .  A
N2247      O2252   1.259       .  A
N2250      O2254   1.262       .  A
N2250      O2253   1.262       .  A
C2255      C2256   1.402       .  A
C2255      C2260   1.399       .  A
C2255      H2262   1.082       .  S
C2256      C2257   1.413       .  A
C2257      C2258   1.402       .  A
C2257      N2264   1.431       .  S
C2258      C2259   1.404       .  A
C2258      H2263   1.081       .  S
C2259      C2260   1.413       .  A
C2260      N2261   1.428       .  S
N2261      O2265   1.262       .  A
N2261      O2266   1.262       .  A
N2264      O2268   1.262       .  A
N2264      O2267   1.262       .  A
C2269      C2270   1.406       .  A
C2269      C2274   1.400       .  A
C2269      H2276   1.076       .  S
C2270      C2271   1.411       .  A
C2271      C2272   1.400       .  A
C2271      N2278   1.429       .  S
C2272      C2273   1.404       .  A
C2272      H2277   1.075       .  S
C2273      C2274   1.408       .  A
C2274      N2275   1.430       .  S
N2275      O2279   1.262       .  A
N2275      O2280   1.262       .  A
N2278      O2282   1.262       .  A
N2278      O2281   1.262       .  A
C2283      C2284   1.399       .  A
C2283      C2288   1.396       .  A
C2283      H2290   1.087       .  S
C2284      C2285   1.412       .  A
C2285      C2286   1.401       .  A
C2285      N2292   1.428       .  S
C2286      C2287   1.402       .  A
C2286      H2291   1.087       .  S
C2287      C2288   1.411       .  A
C2288      N2289   1.424       .  S
N2289      O2293   1.260       .  A
N2289      O2294   1.262       .  A
N2292      O2296   1.262       .  A
N2292      O2295   1.262       .  A
C2297      C2298   1.404       .  A
C2297      C2302   1.403       .  A
C2297      H2304   1.081       .  S
C2298      C2299   1.412       .  A
C2299      C2300   1.401       .  A
C2299      N2306   1.429       .  S
C2300      C2301   1.403       .  A
C2300      H2305   1.081       .  S
C2301      C2302   1.414       .  A
C2302      N2303   1.431       .  S
N2303      O2307   1.263       .  A
N2303      O2308   1.262       .  A
N2306      O2310   1.262       .  A
N2306      O2309   1.262       .  A
C2311      C2312   1.400       .  A
C2311      C2316   1.394       .  A
C2311      H2318   1.078       .  S
C2312      C2313   1.410       .  A
C2313      C2314   1.401       .  A
C2313      N2320   1.429       .  S
C2314      C2315   1.407       .  A
C2314      H2319   1.076       .  S
C2315      C2316   1.415       .  A
C2316      N2317   1.428       .  S
N2317      O2321   1.260       .  A
N2317      O2322   1.262       .  A
N2320      O2324   1.262       .  A
N2320      O2323   1.262       .  A
C2325      C2326   1.401       .  A
C2325      C2330   1.399       .  A
C2325      H2332   1.084       .  S
C2326      C2327   1.413       .  A
C2327      C2328   1.401       .  A
C2327      N2334   1.432       .  S
C2328      C2329   1.404       .  A
C2328      H2333   1.084       .  S
C2329      C2330   1.412       .  A
C2330      N2331   1.429       .  S
N2331      O2335   1.262       .  A
N2331      O2336   1.262       .  A
N2334      O2338   1.262       .  A
N2334      O2337   1.262       .  A
C2339      C2340   1.402       .  A
C2339      C2344   1.399       .  A
C2339      H2346   1.077       .  S
C2340      C2341   1.410       .  A
C2341      C2342   1.401       .  A
C2341      N2348   1.429       .  S
C2342      C2343   1.407       .  A
C2342      H2347   1.075       .  S
C2343      C2344   1.412       .  A
C2344      N2345   1.428       .  S
N2345      O2349   1.260       .  A
N2345      O2350   1.262       .  A
N2348      O2352   1.262       .  A
N2348      O2351   1.262       .  A
C2353      C2354   1.407       .  A
C2353      C2358   1.404       .  A
C2353      H2360   1.083       .  S
C2354      C2355   1.412       .  A
C2355      C2356   1.399       .  A
C2355      N2362   1.428       .  S
C2356      C2357   1.402       .  A
C2356      H2361   1.083       .  S
C2357      C2358   1.411       .  A
C2358      N2359   1.430       .  S
N2359      O2363   1.262       .  A
N2359      O2364   1.262       .  A
N2362      O2366   1.261       .  A
N2362      O2365   1.262       .  A
C2367      C2368   1.402       .  A
C2367      C2372   1.400       .  A
C2367      H2374   1.082       .  S
C2368      C2369   1.411       .  A
C2369      C2370   1.400       .  A
C2369      N2376   1.429       .  S
C2370      C2371   1.402       .  A
C2370      H2375   1.082       .  S
C2371      C2372   1.414       .  A
C2372      N2373   1.431       .  S
N2373      O2377   1.262       .  A
N2373      O2378   1.260       .  A
N2376      O2380   1.262       .  A
N2376      O2379   1.262       .  A
C2381      C2382   1.405       .  A
C2381      C2386   1.402       .  A
C2381      H2388   1.079       .  S
C2382      C2383   1.411       .  A
C2383      C2384   1.398       .  A
C2383      N2390   1.429       .  S
C2384      C2385   1.403       .  A
C2384      H2389   1.078       .  S
C2385      C2386   1.413       .  A
C2386      N2387   1.431       .  S
N2387      O2391   1.261       .  A
N2387      O2392   1.260       .  A
N2390      O2394   1.262       .  A
N2390      O2393   1.262       .  A
C2395      C2396   1.404       .  A
C2395      C2400   1.398       .  A
C2395      H2402   1.080       .  S
C2396      C2397   1.408       .  A
C2397      C2398   1.396       .  A
C2397      N2404   1.428       .  S
C2398      C2399   1.404       .  A
C2398      H2403   1.079       .  S
C2399      C2400   1.411       .  A
C2400      N2401   1.429       .  S
N2401      O2405   1.261       .  A
N2401      O2406   1.262       .  A
N2404      O2408   1.262       .  A
N2404      O2407   1.262       .  A
C2409      H2410   1.107       .  S
C2409      C2415   1.536       .  S
C2409      C2414   1.538       .  S
C2409      C2413   1.541       .  S
C2411      H2412   1.108       .  S
C2411      C2417   1.536       .  S
C2411      C2416   1.536       .  S
C2411      C2418   1.536       .  S
C2413      C2416   1.375       .  D
C2413      C2698   1.495       .  S
C2414      C2417   1.378       .  D
C2414      C2715   1.487       .  S
C2415      C2418   1.377       .  D
C2415      C2743   1.483       .  S
C2416      C2670   1.486       .  S
C2417      C2687   1.493       .  S
C2418      C2729   1.487       .  S
O2419      C2422   1.267       .  A
O2419     Cd2424   2.478       .  S
C2420      O2429   1.262       .  A
C2420      O2425   1.265       .  A
O2421      C2427   1.265       .  A
O2421     Cd2424   2.483       .  S
C2422      O2430   1.264       .  A
C2422      C2563   1.463       .  S
C2423      O2428   1.263       .  A
C2423      O2426   1.265       .  A
C2423      C2656   1.477       .  S
Cd2424     O2431   2.435       .  S
Cd2424     O2430   2.434       .  S
Cd2424     O2429   2.454       .  S
Cd2424     O2425   2.492       .  S
Cd2424     O2428   2.419       .  S
Cd2424     O2426   2.491       .  S
C2427      O2431   1.264       .  A
O2432      C2435   1.268       .  A
O2432     Cd2437   2.479       .  S
C2433      O2442   1.263       .  A
C2433      O2438   1.264       .  A
O2434      C2440   1.266       .  A
O2434     Cd2437   2.497       .  S
C2435      O2443   1.266       .  A
C2435      C2537   1.468       .  S
C2436      O2441   1.264       .  A
C2436      O2439   1.265       .  A
C2436      C2642   1.485       .  S
Cd2437     O2444   2.440       .  S
Cd2437     O2443   2.452       .  S
Cd2437     O2442   2.460       .  S
Cd2437     O2438   2.500       .  S
Cd2437     O2441   2.485       .  S
Cd2437     O2439   2.475       .  S
C2440      O2444   1.262       .  A
O2445      C2448   1.267       .  A
O2445     Cd2450   2.473       .  S
C2446      O2455   1.262       .  A
C2446      O2451   1.266       .  A
C2446      C2513   1.462       .  S
O2447      C2453   1.268       .  A
O2447     Cd2450   2.490       .  S
C2448      O2456   1.267       .  A
C2449      O2454   1.265       .  A
C2449      O2452   1.264       .  A
C2449      C2628   1.477       .  S
Cd2450     O2457   2.422       .  S
Cd2450     O2456   2.463       .  S
Cd2450     O2455   2.425       .  S
Cd2450     O2451   2.491       .  S
Cd2450     O2454   2.453       .  S
Cd2450     O2452   2.480       .  S
C2453      O2457   1.262       .  A
O2458      C2461   1.266       .  A
O2458     Cd2463   2.503       .  S
C2459      O2468   1.265       .  A
C2459      O2464   1.267       .  A
O2460      C2466   1.266       .  A
O2460     Cd2463   2.484       .  S
C2461      O2469   1.262       .  A
C2462      O2467   1.264       .  A
C2462      O2465   1.266       .  A
C2462      C2701   1.481       .  S
Cd2463     O2470   2.444       .  S
Cd2463     O2469   2.456       .  S
Cd2463     O2468   2.459       .  S
Cd2463     O2464   2.482       .  S
Cd2463     O2467   2.456       .  S
Cd2463     O2465   2.479       .  S
C2466      O2470   1.263       .  A
O2471      C2474   1.265       .  A
O2471     Cd2476   2.490       .  S
C2472      O2481   1.265       .  A
C2472      O2477   1.267       .  A
O2473      C2479   1.266       .  A
O2473     Cd2476   2.486       .  S
C2474      O2482   1.263       .  A
C2475      O2480   1.265       .  A
C2475      O2478   1.264       .  A
C2475      C2673   1.481       .  S
Cd2476     O2483   2.444       .  S
Cd2476     O2482   2.455       .  S
Cd2476     O2481   2.448       .  S
Cd2476     O2477   2.478       .  S
Cd2476     O2480   2.466       .  S
Cd2476     O2478   2.467       .  S
C2479      O2483   1.263       .  A
O2484      C2487   1.267       .  A
O2484     Cd2489   2.480       .  S
C2485      O2494   1.263       .  A
C2485      O2490   1.265       .  A
C2485      C2500   1.466       .  S
O2486      C2492   1.265       .  A
O2486     Cd2489   2.492       .  S
C2487      O2495   1.265       .  A
C2488      O2493   1.266       .  A
C2488      O2491   1.264       .  A
C2488      C2614   1.481       .  S
Cd2489     O2496   2.445       .  S
Cd2489     O2495   2.447       .  S
Cd2489     O2494   2.454       .  S
Cd2489     O2490   2.494       .  S
Cd2489     O2493   2.485       .  S
Cd2489     O2491   2.445       .  S
C2492      O2496   1.263       .  A
O2497      C2500   1.265       .  A
O2497     Cd2502   2.489       .  S
C2498      O2507   1.264       .  A
C2498      O2503   1.267       .  A
O2499      C2505   1.266       .  A
O2499     Cd2502   2.493       .  S
C2500      O2508   1.263       .  A
C2501      O2506   1.266       .  A
C2501      O2504   1.265       .  A
C2501      C2684   1.480       .  S
Cd2502     O2509   2.440       .  S
Cd2502     O2508   2.452       .  S
Cd2502     O2507   2.440       .  S
Cd2502     O2503   2.480       .  S
Cd2502     O2506   2.482       .  S
Cd2502     O2504   2.446       .  S
C2505      O2509   1.263       .  A
O2510      C2513   1.265       .  A
O2510     Cd2515   2.500       .  S
C2511      O2520   1.266       .  A
C2511      O2516   1.267       .  A
O2512      C2518   1.265       .  A
O2512     Cd2515   2.485       .  S
C2513      O2521   1.261       .  A
C2514      O2519   1.262       .  A
C2514      O2517   1.265       .  A
C2514      C2740   1.475       .  S
Cd2515     O2522   2.432       .  S
Cd2515     O2521   2.436       .  S
Cd2515     O2520   2.443       .  S
Cd2515     O2516   2.474       .  S
Cd2515     O2519   2.441       .  S
Cd2515     O2517   2.470       .  S
C2518      O2522   1.264       .  A
O2523      C2526   1.267       .  A
O2523     Cd2528   2.481       .  S
C2524      O2533   1.263       .  A
C2524      O2529   1.266       .  A
O2525      C2531   1.265       .  A
O2525     Cd2528   2.477       .  S
C2526      O2534   1.264       .  A
C2527      O2532   1.263       .  A
C2527      O2530   1.267       .  A
C2527      C2603   1.482       .  S
Cd2528     O2535   2.440       .  S
Cd2528     O2534   2.446       .  S
Cd2528     O2533   2.443       .  S
Cd2528     O2529   2.495       .  S
Cd2528     O2532   2.461       .  S
Cd2528     O2530   2.475       .  S
C2531      O2535   1.262       .  A
O2536      C2539   1.265       .  A
O2536     Cd2541   2.500       .  S
C2537      O2546   1.266       .  A
C2537      O2542   1.268       .  A
O2538      C2544   1.266       .  A
O2538     Cd2541   2.494       .  S
C2539      O2547   1.262       .  A
C2540      O2545   1.265       .  A
C2540      O2543   1.264       .  A
C2540      C2712   1.479       .  S
Cd2541     O2548   2.445       .  S
Cd2541     O2547   2.448       .  S
Cd2541     O2546   2.452       .  S
Cd2541     O2542   2.479       .  S
Cd2541     O2545   2.467       .  S
Cd2541     O2543   2.468       .  S
C2544      O2548   1.263       .  A
O2549      C2552   1.267       .  A
O2549     Cd2554   2.476       .  S
C2550      O2559   1.261       .  A
C2550      O2555   1.264       .  A
O2551      C2557   1.265       .  A
O2551     Cd2554   2.474       .  S
C2552      O2560   1.265       .  A
C2553      O2558   1.263       .  A
C2553      O2556   1.266       .  A
C2553      C2586   1.477       .  S
Cd2554     O2561   2.441       .  S
Cd2554     O2560   2.443       .  S
Cd2554     O2559   2.447       .  S
Cd2554     O2555   2.487       .  S
Cd2554     O2558   2.463       .  S
Cd2554     O2556   2.447       .  S
C2557      O2561   1.263       .  A
O2562      C2565   1.265       .  A
O2562     Cd2567   2.478       .  S
C2563      O2572   1.265       .  A
C2563      O2568   1.268       .  A
O2564      C2570   1.267       .  A
O2564     Cd2567   2.495       .  S
C2565      O2573   1.263       .  A
C2566      O2571   1.265       .  A
C2566      O2569   1.265       .  A
C2566      C2726   1.482       .  S
Cd2567     O2574   2.425       .  S
Cd2567     O2573   2.443       .  S
Cd2567     O2572   2.432       .  S
Cd2567     O2568   2.472       .  S
Cd2567     O2571   2.476       .  S
Cd2567     O2569   2.467       .  S
C2570      O2574   1.262       .  A
C2575      H2576   1.104       .  S
C2575      C2581   1.542       .  S
C2575      C2580   1.534       .  S
C2575      C2579   1.539       .  S
C2577      H2578   1.111       .  S
C2577      C2583   1.537       .  S
C2577      C2582   1.534       .  S
C2577      C2584   1.538       .  S
C2579      C2582   1.374       .  D
C2579      C2617   1.485       .  S
C2580      C2583   1.379       .  D
C2580      C2659   1.492       .  S
C2581      C2584   1.379       .  D
C2581      C2589   1.495       .  S
C2582      C2645   1.493       .  S
C2583      C2631   1.486       .  S
C2584      C2600   1.485       .  S
C2585      C2586   1.397       .  A
C2585      C2590   1.397       .  A
C2585      H2592   1.082       .  S
C2586      C2587   1.410       .  A
C2587      C2588   1.401       .  A
C2587      N2594   1.428       .  S
C2588      C2589   1.406       .  A
C2588      H2593   1.082       .  S
C2589      C2590   1.419       .  A
C2590      N2591   1.428       .  S
N2591      O2595   1.262       .  A
N2591      O2596   1.259       .  A
N2594      O2598   1.262       .  A
N2594      O2597   1.262       .  A
C2599      C2600   1.402       .  A
C2599      C2604   1.399       .  A
C2599      H2606   1.082       .  S
C2600      C2601   1.413       .  A
C2601      C2602   1.402       .  A
C2601      N2608   1.431       .  S
C2602      C2603   1.404       .  A
C2602      H2607   1.081       .  S
C2603      C2604   1.413       .  A
C2604      N2605   1.428       .  S
N2605      O2609   1.262       .  A
N2605      O2610   1.262       .  A
N2608      O2612   1.262       .  A
N2608      O2611   1.262       .  A
C2613      C2614   1.406       .  A
C2613      C2618   1.400       .  A
C2613      H2620   1.076       .  S
C2614      C2615   1.411       .  A
C2615      C2616   1.400       .  A
C2615      N2622   1.429       .  S
C2616      C2617   1.404       .  A
C2616      H2621   1.075       .  S
C2617      C2618   1.408       .  A
C2618      N2619   1.430       .  S
N2619      O2623   1.262       .  A
N2619      O2624   1.262       .  A
N2622      O2626   1.262       .  A
N2622      O2625   1.262       .  A
C2627      C2628   1.399       .  A
C2627      C2632   1.396       .  A
C2627      H2634   1.087       .  S
C2628      C2629   1.412       .  A
C2629      C2630   1.401       .  A
C2629      N2636   1.428       .  S
C2630      C2631   1.402       .  A
C2630      H2635   1.087       .  S
C2631      C2632   1.411       .  A
C2632      N2633   1.424       .  S
N2633      O2637   1.260       .  A
N2633      O2638   1.262       .  A
N2636      O2640   1.262       .  A
N2636      O2639   1.262       .  A
C2641      C2642   1.404       .  A
C2641      C2646   1.403       .  A
C2641      H2648   1.081       .  S
C2642      C2643   1.412       .  A
C2643      C2644   1.401       .  A
C2643      N2650   1.429       .  S
C2644      C2645   1.403       .  A
C2644      H2649   1.081       .  S
C2645      C2646   1.414       .  A
C2646      N2647   1.431       .  S
N2647      O2651   1.263       .  A
N2647      O2652   1.262       .  A
N2650      O2654   1.262       .  A
N2650      O2653   1.262       .  A
C2655      C2656   1.400       .  A
C2655      C2660   1.394       .  A
C2655      H2662   1.078       .  S
C2656      C2657   1.410       .  A
C2657      C2658   1.401       .  A
C2657      N2664   1.429       .  S
C2658      C2659   1.407       .  A
C2658      H2663   1.076       .  S
C2659      C2660   1.415       .  A
C2660      N2661   1.428       .  S
N2661      O2665   1.260       .  A
N2661      O2666   1.262       .  A
N2664      O2668   1.262       .  A
N2664      O2667   1.262       .  A
C2669      C2670   1.401       .  A
C2669      C2674   1.399       .  A
C2669      H2676   1.084       .  S
C2670      C2671   1.413       .  A
C2671      C2672   1.401       .  A
C2671      N2678   1.432       .  S
C2672      C2673   1.404       .  A
C2672      H2677   1.084       .  S
C2673      C2674   1.412       .  A
C2674      N2675   1.429       .  S
N2675      O2679   1.262       .  A
N2675      O2680   1.262       .  A
N2678      O2682   1.262       .  A
N2678      O2681   1.262       .  A
C2683      C2684   1.402       .  A
C2683      C2688   1.399       .  A
C2683      H2690   1.077       .  S
C2684      C2685   1.410       .  A
C2685      C2686   1.401       .  A
C2685      N2692   1.429       .  S
C2686      C2687   1.407       .  A
C2686      H2691   1.075       .  S
C2687      C2688   1.412       .  A
C2688      N2689   1.428       .  S
N2689      O2693   1.260       .  A
N2689      O2694   1.262       .  A
N2692      O2696   1.262       .  A
N2692      O2695   1.262       .  A
C2697      C2698   1.407       .  A
C2697      C2702   1.404       .  A
C2697      H2704   1.083       .  S
C2698      C2699   1.412       .  A
C2699      C2700   1.399       .  A
C2699      N2706   1.428       .  S
C2700      C2701   1.402       .  A
C2700      H2705   1.083       .  S
C2701      C2702   1.411       .  A
C2702      N2703   1.430       .  S
N2703      O2707   1.262       .  A
N2703      O2708   1.262       .  A
N2706      O2710   1.261       .  A
N2706      O2709   1.262       .  A
C2711      C2712   1.402       .  A
C2711      C2716   1.400       .  A
C2711      H2718   1.082       .  S
C2712      C2713   1.411       .  A
C2713      C2714   1.400       .  A
C2713      N2720   1.429       .  S
C2714      C2715   1.402       .  A
C2714      H2719   1.082       .  S
C2715      C2716   1.414       .  A
C2716      N2717   1.431       .  S
N2717      O2721   1.262       .  A
N2717      O2722   1.260       .  A
N2720      O2724   1.262       .  A
N2720      O2723   1.262       .  A
C2725      C2726   1.405       .  A
C2725      C2730   1.402       .  A
C2725      H2732   1.080       .  S
C2726      C2727   1.411       .  A
C2727      C2728   1.398       .  A
C2727      N2734   1.429       .  S
C2728      C2729   1.403       .  A
C2728      H2733   1.078       .  S
C2729      C2730   1.413       .  A
C2730      N2731   1.431       .  S
N2731      O2735   1.261       .  A
N2731      O2736   1.260       .  A
N2734      O2738   1.262       .  A
N2734      O2737   1.262       .  A
C2739      C2740   1.404       .  A
C2739      C2744   1.398       .  A
C2739      H2746   1.080       .  S
C2740      C2741   1.408       .  A
C2741      C2742   1.396       .  A
C2741      N2748   1.428       .  S
C2742      C2743   1.404       .  A
C2742      H2747   1.079       .  S
C2743      C2744   1.411       .  A
C2744      N2745   1.429       .  S
N2745      O2749   1.261       .  A
N2745      O2750   1.262       .  A
N2748      O2752   1.262       .  A
N2748      O2751   1.262       .  A
