geometry optimzed in LAMMPS
_audit_creation_date              2020-11-30 
_audit_creation_method            'lammps2cif' 
_symmetry_space_group_name_H-M    'P1' 
_symmetry_Int_Tables_number       1 
_symmetry_cell_setting            triclinic 
loop_ 
_symmetry_equiv_pos_as_xyz 
  x,y,z 
_cell_length_a                    33.28277971 
_cell_length_b                    33.768278207569715 
_cell_length_c                    33.322150681232905 
_cell_angle_alpha                 90.02927394468303 
_cell_angle_beta                  89.90531089902159 
_cell_angle_gamma                 89.94496575155055 
loop_ 
_atom_site_label 
_atom_site_type_symbol 
_atom_site_fract_x 
_atom_site_fract_y 
_atom_site_fract_z 
_atom_site_charge 
C1          C  0.32982585  0.34009184  0.15602391    -0.02800
C2          C  0.33058780  0.24029163  0.28780985    -0.02800
C3          C  0.21135633  0.23993536  0.16180406    -0.02800
C4          C  0.22656358  0.35838531  0.28472973    -0.02800
C5          C  0.34006418  0.23645621  0.65283024    -0.02800
C6          C  0.22657635  0.23086545  0.78624574    -0.02800
C7          C  0.23296826  0.35404788  0.66599455    -0.02800
C8          C  0.34260389  0.33437780  0.78707667    -0.02800
N9          N  0.47623542  0.49264648  0.89858607    -0.06500
N10         N  0.46928950  0.46418397  0.87229426    -0.58600
N11         N  0.44661136  0.58334366  0.92502602    -0.06200
N12         N  0.41829651  0.60914584  0.91579962    -0.60700
N13         N  0.47496665  0.58335865  0.89752989    -0.05800
N14         N  0.46645566  0.60920845  0.86914611    -0.58600
N15         N  0.44835395  0.49278620  0.92654092    -0.05400
N16         N  0.42197838  0.46449071  0.91991158    -0.61100
C17         C  0.43526898  0.44679493  0.88603105     0.95700
C18         C  0.43113831  0.62542480  0.88099201     0.95500
N19         N  0.47066136  0.58481942  0.04912647    -0.06700
N20         N  0.45748196  0.60700339  0.07912561    -0.59200
N21         N  0.44587975  0.49442025  0.02069280    -0.04800
N22         N  0.41763784  0.46817367  0.02841692    -0.60400
N23         N  0.47294186  0.49480716  0.04943405    -0.06700
N24         N  0.46367802  0.46850475  0.07733899    -0.59400
N25         N  0.44386755  0.58408625  0.02007142    -0.04400
N26         N  0.41244279  0.60603781  0.02952759    -0.60500
Mn27       Mn  0.44556499  0.53878968  0.97289056     1.18400
C28         C  0.42148758  0.62062418  0.06611423     0.97800
C29         C  0.42929211  0.45204072  0.06353449     0.98400
N30         N  0.57013624  0.58430649  0.89824230    -0.06700
N31         N  0.57779919  0.61161812  0.87093193    -0.63000
N32         N  0.59839973  0.49249683  0.92589197    -0.05500
N33         N  0.62553236  0.46500276  0.91672301    -0.63700
N34         N  0.57040633  0.49341612  0.89807306    -0.06200
N35         N  0.57776058  0.46693535  0.86987476    -0.63300
N36         N  0.59788435  0.58460051  0.92632254    -0.05100
N37         N  0.62480360  0.61240948  0.91873419    -0.64000
Mn38       Mn  0.52295939  0.53857774  0.89724806     1.10700
C39         C  0.61168462  0.62939762  0.88430817     0.99000
C40         C  0.61201579  0.44892238  0.88172818     0.99100
N41         N  0.56791251  0.49636821  0.05095386    -0.06200
N42         N  0.57633595  0.47193372  0.08062497    -0.61600
N43         N  0.59681877  0.58513863  0.02197892    -0.05500
N44         N  0.62586556  0.61020334  0.03097452    -0.58300
N45         N  0.56854440  0.58628948  0.04974379    -0.06900
N46         N  0.57834299  0.61202643  0.07814625    -0.61200
N47         N  0.59607404  0.49496203  0.02316224    -0.05800
N48         N  0.62422525  0.46947905  0.03362321    -0.58400
Mn49       Mn  0.52011533  0.54089483  0.05061241     1.20200
Mn50       Mn  0.59838337  0.53907106  0.97429330     1.10100
Cl51       Cl  0.52185378  0.53950145  0.97385485    -0.86300
C52         C  0.61146279  0.45527835  0.06947623     0.96000
C53         C  0.61404081  0.62727200  0.06580848     0.95800
C54         C  0.31714743  0.71687273  0.17006341    -0.02800
C55         C  0.19892423  0.83289752  0.16155011    -0.02800
C56         C  0.19814513  0.74080746  0.28980016    -0.02800
C57         C  0.32293707  0.83683790  0.27558866    -0.02800
N58         N  0.46831737  0.07032256  0.54156523    -0.06500
N59         N  0.45887070  0.09453242  0.57126228    -0.58600
N60         N  0.44349456  0.98142736  0.50743888    -0.06200
N61         N  0.41526248  0.95517750  0.51569226    -0.60700
N62         N  0.47183065  0.98034861  0.53491883    -0.05800
N63         N  0.46353000  0.95326611  0.56203344    -0.58600
N64         N  0.44050866  0.07140499  0.51353918    -0.05400
N65         N  0.41156596  0.09634567  0.52359491    -0.61100
C66         C  0.42346039  0.11037571  0.55965113     0.95700
C67         C  0.42835296  0.93745295  0.54966524     0.95500
N68         N  0.46992777  0.98946446  0.38443530    -0.06700
N69         N  0.45953605  0.96654219  0.35392045    -0.59200
N70         N  0.44146850  0.07723643  0.41800641    -0.04800
N71         N  0.41219950  0.10248496  0.41028397    -0.60400
N72         N  0.46978106  0.07963749  0.39040218    -0.06700
N73         N  0.46042477  0.10694177  0.36359936    -0.59400
N74         N  0.44219428  0.98803982  0.41260932    -0.04400
N75         N  0.41251959  0.96452905  0.40184364    -0.60500
Mn76       Mn  0.44127485  0.02954483  0.46298607     1.18400
C77         C  0.42356790  0.95130551  0.36527158     0.97800
C78         C  0.42450211  0.12088286  0.37645192     0.98400
N79         N  0.56683904  0.98269360  0.53781229    -0.06700
N80         N  0.57685261  0.95669144  0.56571879    -0.63000
N81         N  0.59204332  0.07544576  0.51396227    -0.05500
N82         N  0.61842129  0.10322650  0.52306735    -0.63700
N83         N  0.56394389  0.07354325  0.54172539    -0.06200
N84         N  0.57083231  0.09987275  0.57027228    -0.63300
N85         N  0.59489772  0.98445317  0.51009118    -0.05100
N86         N  0.62443995  0.95969304  0.51872916    -0.64000
Mn87       Mn  0.51770007  0.02670009  0.53980739     1.10700
C88         C  0.61281299  0.94211372  0.55339908     0.99000
C89         C  0.60468040  0.11866618  0.55803319     0.99100
N90         N  0.56604822  0.08054364  0.39064610    -0.06200
N91         N  0.57498515  0.10853943  0.36430475    -0.61600
N92         N  0.59373687  0.98811258  0.41487049    -0.05500
N93         N  0.62110169  0.96098154  0.40651501    -0.58300
N94         N  0.56616021  0.98914163  0.38654786    -0.06900
N95         N  0.57439968  0.96271432  0.35838369    -0.61200
N96         N  0.59360517  0.07915079  0.41892020    -0.05800
N97         N  0.62171533  0.10599820  0.41234255    -0.58400
Mn98       Mn  0.51821848  0.03477008  0.38696096     1.20200
Mn99       Mn  0.59445118  0.03177455  0.46434124     1.10100
Cl100      Cl  0.51790373  0.03076743  0.46347594    -0.86300
C101        C  0.60945200  0.12453407  0.37857323     0.96000
C102        C  0.60828733  0.94483967  0.37167092     0.95800
C103        C  0.70729521  0.34636226  0.77299119    -0.02800
C104        C  0.82250169  0.33880019  0.66441727    -0.02800
C105        C  0.71024485  0.21873869  0.66047891    -0.02800
C106        C  0.82114545  0.22040834  0.77777734    -0.02800
C107        C  0.33184683  0.72351005  0.77253961    -0.02800
C108        C  0.32820947  0.84754319  0.66464973    -0.02800
C109        C  0.21780575  0.72799591  0.66298617    -0.02800
C110        C  0.21900304  0.85081395  0.77858420    -0.02800
C111        C  0.72102499  0.84486987  0.28056380    -0.02800
C112        C  0.83189659  0.73429105  0.28867316    -0.02800
C113        C  0.72674567  0.72142206  0.16628831    -0.02800
C114        C  0.83755507  0.83447603  0.15723409    -0.02800
C115        C  0.71232810  0.73760263  0.78478336    -0.02800
C116        C  0.82497889  0.72801048  0.66553378    -0.02800
C117        C  0.72005822  0.84963416  0.66055221    -0.02800
C118        C  0.82769138  0.85194990  0.77841938    -0.02800
N119        N  0.07150978  0.08536437  0.04790653    -0.06500
N120        N  0.09579087  0.09528291  0.07767206    -0.58600
N121        N  0.97869875  0.11161250  0.02292415    -0.06200
N122        N  0.95063387  0.13750130  0.03275701    -0.60700
N123        N  0.98021128  0.08310217  0.04982312    -0.05800
N124        N  0.95349313  0.08907299  0.07845903    -0.58600
N125        N  0.07024275  0.11394925  0.02103743    -0.05400
N126        N  0.09346437  0.14368213  0.03222968    -0.61100
C127        C  0.10976047  0.13155836  0.06735714     0.95700
C128        C  0.93523762  0.12306539  0.06746536     0.95500
N129        N  0.97590316  0.08947291  0.89892811    -0.06700
N130        N  0.94813868  0.09814946  0.87223617    -0.59200
N131        N  0.06868675  0.11615919  0.92449617    -0.04800
N132        N  0.09502076  0.14421997  0.91589892    -0.60400
N133        N  0.06805806  0.08943286  0.89564165    -0.06700
N134        N  0.09399574  0.09902133  0.86707635    -0.59400
N135        N  0.97646616  0.11633978  0.92749185    -0.04400
N136        N  0.94911892  0.14398254  0.92050086    -0.60500
Mn137      Mn  0.02359401  0.11541650  0.97393839     1.18400
C138        C  0.93141458  0.13212873  0.88593260     0.97800
C139        C  0.11083914  0.13330636  0.88001653     0.98400
N140        N  0.98005260  0.98954353  0.04697013    -0.06700
N141        N  0.95409102  0.97950640  0.07539597    -0.63000
N142        N  0.07130721  0.96423043  0.01369987    -0.05500
N143        N  0.09783183  0.93594348  0.02028845    -0.63700
N144        N  0.07270332  0.99074652  0.04262296    -0.06200
N145        N  0.10018864  0.98088166  0.06936832    -0.63300
N146        N  0.97929783  0.96334537  0.01777397    -0.05100
N147        N  0.95326551  0.93495871  0.02579818    -0.64000
Mn148      Mn  0.02633388  0.03706672  0.04767509     1.10700
C149        C  0.93718101  0.94565612  0.06144555     0.99000
C150        C  0.11607116  0.94684119  0.05488591     0.99100
N151        N  0.06657062  0.99432577  0.89177085    -0.06200
N152        N  0.09180061  0.98536313  0.86238535    -0.61600
N153        N  0.97434933  0.96779459  0.92353110    -0.05500
N154        N  0.94560241  0.94167034  0.91649300    -0.58300
N155        N  0.97400549  0.99583369  0.89611060    -0.06900
N156        N  0.94515263  0.98904905  0.86976762    -0.61200
N157        N  0.06682142  0.96627444  0.91911175    -0.05800
N158        N  0.09223535  0.93798098  0.90903198    -0.58400
Mn159      Mn  0.02130902  0.04230344  0.89460105     1.20200
Mn160      Mn  0.02299088  0.96467389  0.96846695     1.10100
Cl161      Cl  0.02376875  0.03994533  0.97114462    -0.86300
C162        C  0.10783191  0.95010763  0.87362598     0.96000
C163        C  0.92706809  0.95559466  0.88322701     0.95800
C164        C  0.71456637  0.23621868  0.28951434    -0.02800
C165        C  0.82335674  0.22378641  0.15737198    -0.02800
C166        C  0.71260848  0.34864855  0.16754504    -0.02800
C167        C  0.84150654  0.34434332  0.27228097    -0.02800
N168        N  0.06821832  0.48832779  0.40449672    -0.06500
N169        N  0.09371274  0.47986665  0.37537393    -0.58600
N170        N  0.97651160  0.45927655  0.43107021    -0.06200
N171        N  0.95127216  0.43087604  0.42058908    -0.60700
N172        N  0.97705038  0.48723374  0.40346885    -0.05800
N173        N  0.95245527  0.47827711  0.37383093    -0.58600
N174        N  0.06804742  0.45991173  0.43156852    -0.05400
N175        N  0.09333439  0.43149660  0.42108382    -0.61100
C176        C  0.10922857  0.44439227  0.38602915     0.95700
C177        C  0.93605831  0.44343594  0.38510479     0.95500
N178        N  0.97570034  0.48465232  0.55573994    -0.06700
N179        N  0.95004372  0.47495927  0.58435418    -0.59200
N180        N  0.06805053  0.45927797  0.52807266    -0.04800
N181        N  0.09503766  0.43190551  0.53706583    -0.60400
N182        N  0.06761331  0.48705497  0.55587880    -0.06700
N183        N  0.09449761  0.47923418  0.58400533    -0.59400
N184        N  0.97602950  0.45743236  0.52744469    -0.04400
N185        N  0.95043699  0.42879633  0.53630579    -0.60500
Mn186      Mn  0.02212550  0.45808543  0.47955741     1.18400
C187        C  0.93440025  0.44010085  0.57191873     0.97800
C188        C  0.11146583  0.44477675  0.57190488     0.98400
N189        N  0.97504711  0.58136653  0.40353810    -0.06700
N190        N  0.94962885  0.59075342  0.37452674    -0.63000
N191        N  0.06566103  0.61015055  0.43397339    -0.05500
N192        N  0.09072014  0.63935176  0.42585095    -0.63700
N193        N  0.06746716  0.58285120  0.40582000    -0.06200
N194        N  0.09406541  0.59298080  0.37810469    -0.63300
N195        N  0.97389705  0.60821510  0.43209627    -0.05100
N196        N  0.94784671  0.63627666  0.42307774    -0.64000
Mn197      Mn  0.02204608  0.53493890  0.40362744     1.10700
C198        C  0.93244759  0.62494595  0.38729318     0.99000
C199        C  0.10891451  0.62794226  0.39141591     0.99100
N200        N  0.06472839  0.58115062  0.55624467    -0.06200
N201        N  0.09150250  0.58989430  0.58408111    -0.61600
N202        N  0.97162503  0.60613098  0.52699029    -0.05500
N203        N  0.94347861  0.63271592  0.53452561    -0.58300
N204        N  0.97246946  0.57904010  0.55539264    -0.06900
N205        N  0.94509475  0.58705121  0.58303422    -0.61200
N206        N  0.06375125  0.60899674  0.52868565    -0.05800
N207        N  0.08970222  0.63724843  0.53729870    -0.58400
Mn208      Mn  0.02014246  0.53305204  0.55672496     1.20200
Mn209      Mn  0.01863912  0.60906180  0.48055968     1.10100
Cl210      Cl  0.02073506  0.53369391  0.48011690    -0.86300
C211        C  0.10717334  0.62477902  0.57166799     0.96000
C212        C  0.92670545  0.62016030  0.56920310     0.95800
C213        C  0.92495691  0.41429723  0.31808559    -0.20700
C214        C  0.91196444  0.41846849  0.35767119    -0.07200
C215        C  0.87778173  0.39781494  0.37027995     0.13600
C216        C  0.85647295  0.37472900  0.34248198    -0.20700
C217        C  0.86865483  0.36949429  0.30173551    -0.07200
C218        C  0.90563269  0.38896489  0.29058763     0.13600
C219        C  0.92887929  0.38158550  0.25225683    -0.24100
H220        H  0.95236113  0.42938416  0.30934019     0.14900
H221        H  0.83057722  0.36024895  0.35445264     0.14900
C222        C  0.86301107  0.40072530  0.41303617    -0.24000
H223        H  0.95576405  0.40087781  0.24956929     0.05200
H224        H  0.91096784  0.38757568  0.22554988     0.08400
H225        H  0.94048786  0.35091764  0.25151135     0.08400
H226        H  0.85728410  0.43218943  0.42088779     0.08400
H227        H  0.88584048  0.38829289  0.43374809     0.08400
H228        H  0.83467513  0.38400584  0.41775887     0.05100
C229        C  0.77573926  0.39291772  0.25945556    -0.20700
C230        C  0.81302366  0.37660573  0.24612187    -0.07200
C231        C  0.81739404  0.39078903  0.20540252     0.13600
C232        C  0.78319880  0.38952581  0.17849960    -0.20700
C233        C  0.74447581  0.37819104  0.19262182    -0.07200
C234        C  0.74114927  0.39463115  0.23287040     0.13600
C235        C  0.70854633  0.42398105  0.24330489    -0.24100
H236        H  0.77436028  0.40690014  0.28853908     0.14900
H237        H  0.78573815  0.40217345  0.14881661     0.14900
C238        C  0.84770547  0.42272489  0.19642665    -0.24000
H239        H  0.71728309  0.44243077  0.26946177     0.05200
H240        H  0.67988177  0.40970298  0.25142062     0.08400
H241        H  0.70389675  0.44459668  0.21778132     0.08400
H242        H  0.86920916  0.41335973  0.17281633     0.08400
H243        H  0.86359484  0.43218522  0.22402546     0.08400
H244        H  0.83206095  0.44962068  0.18524437     0.05100
C245        C  0.75150826  0.24495632  0.12642466    -0.20700
C246        C  0.79372348  0.25012199  0.12761512    -0.07200
C247        C  0.80300822  0.28886688  0.11311009     0.13600
C248        C  0.77657540  0.32106316  0.12310803    -0.20700
C249        C  0.73794179  0.31511780  0.14208059    -0.07200
C250        C  0.72374444  0.27651150  0.13197992     0.13600
C251        C  0.68303675  0.26983033  0.11411452    -0.24100
H252        H  0.73991590  0.21753900  0.11543430     0.14900
H253        H  0.78806529  0.34979303  0.11667399     0.14900
C254        C  0.84206798  0.29755303  0.09191867    -0.24000
H255        H  0.68645236  0.26039688  0.08234302     0.05200
H256        H  0.66511749  0.29733904  0.11344917     0.08400
H257        H  0.66766452  0.24541321  0.13012601     0.08400
H258        H  0.83557210  0.30770855  0.06093032     0.08400
H259        H  0.86148504  0.27087364  0.09027191     0.08400
H260        H  0.85883835  0.32139408  0.10752782     0.05100
C261        C  0.87045402  0.32200404  0.20080195    -0.20700
C262        C  0.87176824  0.31720388  0.24271890    -0.07200
C263        C  0.88724006  0.27681752  0.24780958     0.13600
C264        C  0.88083970  0.24619575  0.21635170    -0.20700
C265        C  0.85552581  0.25362639  0.18140550    -0.07200
C266        C  0.84680035  0.29383151  0.18103093     0.13600
C267        C  0.80795314  0.29471298  0.19960774    -0.24100
H268        H  0.87430235  0.34979590  0.18624343     0.14900
H269        H  0.89562398  0.21802746  0.22001455     0.14900
C270        C  0.92473127  0.27133023  0.27231768    -0.24000
H271        H  0.79539666  0.32300364  0.19601557     0.05200
H272        H  0.78606792  0.27440629  0.18983702     0.08400
H273        H  0.81157626  0.28434288  0.23033231     0.08400
H274        H  0.92932007  0.29565731  0.29413177     0.08400
H275        H  0.95108302  0.27161003  0.25183883     0.08400
H276        H  0.92460778  0.24231561  0.28783970     0.05100
C277        C  0.66173120  0.26074536  0.22908413    -0.20700
C278        C  0.68830555  0.26784756  0.26276104    -0.07200
C279        C  0.70245827  0.30650339  0.26100568     0.13600
C280        C  0.68144863  0.33595823  0.24018372    -0.20700
C281        C  0.67893539  0.32830174  0.19891342    -0.07200
C282        C  0.65720059  0.29066976  0.19679984     0.13600
C283        C  0.61694053  0.29102120  0.17634647    -0.24100
H284        H  0.64447352  0.23364253  0.22797989     0.14900
H285        H  0.65320099  0.34377165  0.25446669     0.14900
C286        C  0.74092903  0.30090759  0.24346395    -0.24000
H287        H  0.61043769  0.26204254  0.16212578     0.05200
H288        H  0.61482881  0.31508320  0.15376599     0.08400
H289        H  0.59326387  0.29666925  0.19916998     0.08400
H290        H  0.76010522  0.27982020  0.25706137     0.08400
H291        H  0.73564746  0.28905075  0.21349839     0.08400
H292        H  0.75711739  0.32721725  0.24474362     0.05100
C293        C  0.78694158  0.25038675  0.32529334    -0.20700
C294        C  0.74545718  0.26004372  0.32154260    -0.07200
C295        C  0.74309653  0.30143570  0.33151954     0.13600
C296        C  0.77399614  0.32864634  0.31847536    -0.20700
C297        C  0.81079541  0.31569896  0.29942573    -0.07200
C298        C  0.81927985  0.27723203  0.31543685     0.13600
C299        C  0.85767692  0.26986296  0.33751889    -0.24100
H300        H  0.79386091  0.22578649  0.34464862     0.14900
H301        H  0.76954583  0.35905120  0.32639257     0.14900
C302        C  0.71247704  0.31653488  0.36068679    -0.24000
H303        H  0.85110701  0.26707740  0.37009873     0.05200
H304        H  0.87866582  0.29495152  0.33486694     0.08400
H305        H  0.87112573  0.24155753  0.32752180     0.08400
H306        H  0.69659770  0.29170682  0.37538233     0.08400
H307        H  0.69123702  0.33691448  0.34544818     0.08400
H308        H  0.72781805  0.33305675  0.38506697     0.05100
C309        C  0.72767285  0.19951037  0.21917192    -0.20700
C310        C  0.74164301  0.21068977  0.25768393    -0.07200
C311        C  0.78172122  0.19629705  0.26377485     0.13600
C312        C  0.80928970  0.19702593  0.23143808    -0.20700
C313        C  0.79636659  0.20166010  0.19136800    -0.07200
C314        C  0.75518446  0.19029620  0.18764831     0.13600
C315        C  0.74319384  0.15833849  0.15857111    -0.24100
H316        H  0.69616145  0.19377708  0.21468032     0.14900
H317        H  0.83969073  0.18845356  0.23767393     0.14900
C318        C  0.79236069  0.16828571  0.29745349    -0.24000
H319        H  0.73956823  0.13008087  0.17518070     0.05200
H320        H  0.76652023  0.15379159  0.13521183     0.08400
H321        H  0.71384733  0.16529253  0.14438561     0.08400
H322        H  0.77031123  0.16890782  0.32233261     0.08400
H323        H  0.82266982  0.17529200  0.30944898     0.08400
H324        H  0.79333604  0.13757613  0.28554883     0.05100
C325        C  0.87420713  0.16367678  0.06984419    -0.20700
C326        C  0.90377101  0.14350245  0.09100551    -0.07200
C327        C  0.90281201  0.14412486  0.13326590     0.13600
C328        C  0.87465873  0.16836704  0.15287727    -0.20700
C329        C  0.84706339  0.19253948  0.13203611    -0.07200
C330        C  0.84451831  0.18624890  0.08916200     0.13600
C331        C  0.81031770  0.19886196  0.06207782    -0.24100
H332        H  0.87390214  0.16087675  0.03740406     0.14900
H333        H  0.87465899  0.16824581  0.18505427     0.14900
C334        C  0.93220895  0.12062531  0.15808141    -0.24000
H335        H  0.81276513  0.18580502  0.03155340     0.05200
H336        H  0.80985259  0.23111013  0.05688258     0.08400
H337        H  0.78153577  0.18764485  0.07397206     0.08400
H338        H  0.96343764  0.12917820  0.15018758     0.08400
H339        H  0.92784419  0.08849425  0.15259307     0.08400
H340        H  0.92804941  0.12587580  0.19073544     0.05100
C341        C  0.84186022  0.89028263  0.84422377    -0.20700
C342        C  0.85588703  0.87875972  0.80545244    -0.07200
C343        C  0.89461127  0.89461666  0.79403153     0.13600
C344        C  0.91527546  0.92039327  0.81999450    -0.20700
C345        C  0.90073101  0.93073134  0.85762469    -0.07200
C346        C  0.86358088  0.91545294  0.87012515     0.13600
C347        C  0.84616165  0.92668023  0.91032706    -0.24100
H348        H  0.81335329  0.87997928  0.85519593     0.14900
H349        H  0.94428807  0.93221845  0.81122530     0.14900
C350        C  0.91700624  0.88571662  0.75574554    -0.24000
H351        H  0.81629895  0.91287219  0.91540781     0.05200
H352        H  0.84241967  0.95932468  0.91198620     0.08400
H353        H  0.86652333  0.91683296  0.93470703     0.08400
H354        H  0.90133140  0.89890128  0.73008929     0.08400
H355        H  0.92312164  0.85372316  0.75262570     0.08400
H356        H  0.94727863  0.89952572  0.75487567     0.05100
C357        C  0.73221120  0.89410392  0.72544655    -0.20700
C358        C  0.74426906  0.88314523  0.68588490    -0.07200
C359        C  0.78450705  0.89529683  0.67911464     0.13600
C360        C  0.81233870  0.89402104  0.71160340    -0.20700
C361        C  0.80045727  0.88081649  0.75026535    -0.07200
C362        C  0.76033147  0.89387577  0.75774723     0.13600
C363        C  0.75145347  0.92236574  0.79134471    -0.24100
H364        H  0.70145924  0.90125281  0.73204749     0.14900
H365        H  0.84168257  0.90648585  0.70733315     0.14900
C366        C  0.79400486  0.92207562  0.64432700    -0.24000
H367        H  0.74854231  0.95270289  0.77881922     0.05200
H368        H  0.77589844  0.92329727  0.81372162     0.08400
H369        H  0.72250667  0.91484923  0.80610355     0.08400
H370        H  0.79621255  0.95305659  0.65529775     0.08400
H371        H  0.77011070  0.92092211  0.62116804     0.08400
H372        H  0.82332342  0.91398523  0.63064050     0.05100
C373        C  0.76098263  0.75052098  0.62004321    -0.20700
C374        C  0.80097907  0.75595602  0.63331414    -0.07200
C375        C  0.81434953  0.79324804  0.61968798     0.13600
C376        C  0.78857126  0.82603861  0.62625007    -0.20700
C377        C  0.74727352  0.82022937  0.63462046    -0.07200
C378        C  0.73331956  0.78234077  0.62130692     0.13600
C379        C  0.69112834  0.77434137  0.60754966    -0.24100
H380        H  0.75102658  0.72231596  0.60911351     0.14900
H381        H  0.79832262  0.85427702  0.61568521     0.14900
C382        C  0.83749499  0.79396213  0.58078698    -0.24000
H383        H  0.67730800  0.75112165  0.62666333     0.05200
H384        H  0.69191156  0.76338353  0.57614187     0.08400
H385        H  0.67199170  0.80104061  0.60786761     0.08400
H386        H  0.85979174  0.76958958  0.57935637     0.08400
H387        H  0.85298339  0.82276142  0.57654816     0.08400
H388        H  0.81628044  0.78985591  0.55541442     0.05100
C389        C  0.86354404  0.82651926  0.70855139    -0.20700
C390        C  0.85384885  0.82212778  0.75014389    -0.07200
C391        C  0.86490990  0.78369215  0.76240577     0.13600
C392        C  0.85337609  0.75178251  0.73776794    -0.20700
C393        C  0.84870713  0.75712450  0.69556088    -0.07200
C394        C  0.86737032  0.79301462  0.68332911     0.13600
C395        C  0.89914075  0.79411820  0.65124744    -0.24100
H396        H  0.87281064  0.85392711  0.69561338     0.14900
H397        H  0.85557307  0.72338411  0.75153925     0.14900
C398        C  0.90169903  0.77793076  0.78786709    -0.24000
H399        H  0.92888920  0.79812877  0.66570420     0.05200
H400        H  0.89448419  0.81977192  0.63111020     0.08400
H401        H  0.90042396  0.76617354  0.63395042     0.08400
H402        H  0.89864007  0.75124702  0.80698262     0.08400
H403        H  0.90793294  0.80431341  0.80664019     0.08400
H404        H  0.92807358  0.77331507  0.76793880     0.05100
C405        C  0.84003510  0.68498311  0.60416364    -0.20700
C406        C  0.85370482  0.69935891  0.64184978    -0.07200
C407        C  0.89161785  0.68375860  0.65570375     0.13600
C408        C  0.91335745  0.65710321  0.63145434    -0.20700
C409        C  0.89986042  0.64526496  0.59383136    -0.07200
C410        C  0.86274338  0.65926316  0.57992390     0.13600
C411        C  0.84646204  0.64624336  0.53985813    -0.24100
H412        H  0.81116411  0.69381903  0.59275576     0.14900
H413        H  0.94210818  0.64576481  0.64158984     0.14900
C414        C  0.91107515  0.69304012  0.69543425    -0.24000
H415        H  0.81639547  0.65919416  0.53375259     0.05200
H416        H  0.84358556  0.61349068  0.53930108     0.08400
H417        H  0.86703488  0.65577148  0.51547456     0.08400
H418        H  0.89243149  0.68166568  0.72013279     0.08400
H419        H  0.91802277  0.72490685  0.69818447     0.08400
H420        H  0.94049168  0.67792532  0.69914597     0.05100
C421        C  0.70693259  0.80754726  0.75956693    -0.20700
C422        C  0.68748382  0.77175013  0.76146738    -0.07200
C423        C  0.65815198  0.77146557  0.72902237     0.13600
C424        C  0.66481113  0.79790649  0.69449558    -0.20700
C425        C  0.70201670  0.82029746  0.69238154    -0.07200
C426        C  0.72675255  0.81274727  0.72462310     0.13600
C427        C  0.76765286  0.79706299  0.71883547    -0.24100
H428        H  0.68738467  0.83226108  0.76734888     0.14900
H429        H  0.64221981  0.80068807  0.67140808     0.14900
C430        C  0.61924696  0.74959254  0.73222559    -0.24000
H431        H  0.78004947  0.78411007  0.74610158     0.05200
H432        H  0.76617968  0.77368708  0.69697729     0.08400
H433        H  0.78738513  0.81960158  0.70653080     0.08400
H434        H  0.59413130  0.77123389  0.73156732     0.08400
H435        H  0.61708982  0.73306754  0.76083923     0.08400
H436        H  0.61573563  0.72922111  0.70635204     0.05100
C437        C  0.72672185  0.71306918  0.71099236    -0.20700
C438        C  0.73789840  0.71363890  0.75220263    -0.07200
C439        C  0.77198968  0.68847724  0.75966251     0.13600
C440        C  0.80113492  0.68354017  0.72838594    -0.20700
C441        C  0.79414385  0.70062285  0.69031215    -0.07200
C442        C  0.75307322  0.69882157  0.68173975     0.13600
C443        C  0.73770103  0.66595106  0.65533384    -0.24100
H444        H  0.69705141  0.71919174  0.70075277     0.14900
H445        H  0.82848665  0.66729475  0.73403115     0.14900
C446        C  0.77485999  0.66165540  0.79557923    -0.24000
H447        H  0.73094613  0.63953857  0.67399256     0.05200
H448        H  0.76045231  0.65727271  0.63256899     0.08400
H449        H  0.70969817  0.67523043  0.63985489     0.08400
H450        H  0.77030475  0.63060246  0.78562592     0.08400
H451        H  0.75186058  0.66846690  0.81857602     0.08400
H452        H  0.80519614  0.66350919  0.80924076     0.05100
C453        C  0.78441734  0.75409247  0.81841865    -0.20700
C454        C  0.74277461  0.76168630  0.81513386    -0.07200
C455        C  0.73373097  0.80000618  0.83258668     0.13600
C456        C  0.76100455  0.83172508  0.82347965    -0.20700
C457        C  0.79980484  0.82366337  0.80753705    -0.07200
C458        C  0.81189662  0.78600263  0.82226152     0.13600
C459        C  0.83984026  0.78449842  0.85766093    -0.24100
H460        H  0.79412434  0.72542789  0.82798824     0.14900
H461        H  0.75187342  0.86112049  0.83036790     0.14900
C462        C  0.69325278  0.81013223  0.85048898    -0.24000
H463        H  0.85510259  0.75534494  0.85954912     0.05200
H464        H  0.82207976  0.78865438  0.88559282     0.08400
H465        H  0.86244718  0.80849492  0.85649329     0.08400
H466        H  0.69323380  0.80220724  0.88279513     0.08400
H467        H  0.66842332  0.79415304  0.83546319     0.08400
H468        H  0.68685480  0.84233120  0.84815102     0.05100
C469        C  0.85003030  0.90027184  0.11971664    -0.20700
C470        C  0.86546725  0.86268799  0.13173710    -0.07200
C471        C  0.90523481  0.85328474  0.11757374     0.13600
C472        C  0.92703627  0.88118643  0.09481107    -0.20700
C473        C  0.91183803  0.91860794  0.08576444    -0.07200
C474        C  0.87290311  0.92839655  0.09845434     0.13600
C475        C  0.85508503  0.96831247  0.08884747    -0.24100
H476        H  0.81966438  0.90865375  0.12717273     0.14900
H477        H  0.95699214  0.87396517  0.08420663     0.14900
C478        C  0.92658642  0.81468596  0.12511533    -0.24000
H479        H  0.82389140  0.97123158  0.10038553     0.05200
H480        H  0.85446849  0.97274218  0.05583963     0.08400
H481        H  0.87351492  0.99197030  0.10282045     0.08400
H482        H  0.90955918  0.79014115  0.11173962     0.08400
H483        H  0.93240213  0.81038087  0.15745340     0.08400
H484        H  0.95666537  0.81362146  0.11065497     0.05100
C485        C  0.74374489  0.78383702  0.12317984    -0.20700
C486        C  0.75602417  0.74616065  0.13773661    -0.07200
C487        C  0.79530814  0.73599530  0.12425877     0.13600
C488        C  0.82359081  0.76685425  0.11846574    -0.20700
C489        C  0.81321064  0.80657216  0.12619717    -0.07200
C490        C  0.77291211  0.81300281  0.11394432     0.13600
C491        C  0.76397144  0.84146310  0.08040414    -0.24100
H492        H  0.71215060  0.79071943  0.11988609     0.14900
H493        H  0.85223123  0.76013201  0.10499305     0.14900
C494        C  0.80445508  0.69712287  0.10463671    -0.24000
H495        H  0.76174346  0.82470020  0.05181906     0.05200
H496        H  0.78817500  0.86375533  0.07708484     0.08400
H497        H  0.73484662  0.85674199  0.08545838     0.08400
H498        H  0.77858428  0.67672877  0.10614706     0.08400
H499        H  0.81071300  0.70213209  0.07228956     0.08400
H500        H  0.83175741  0.68391304  0.11810642     0.05100
C501        C  0.73584747  0.68354837  0.23588938    -0.20700
C502        C  0.74838961  0.68903878  0.19526739    -0.07200
C503        C  0.78903391  0.67755455  0.19225960     0.13600
C504        C  0.81559728  0.68862863  0.22387287    -0.20700
C505        C  0.80206225  0.70747083  0.25988998    -0.07200
C506        C  0.76260702  0.69211593  0.26848289     0.13600
C507        C  0.75066372  0.67516556  0.30813041    -0.24100
H508        H  0.70586935  0.67415487  0.24287821     0.14900
H509        H  0.84466283  0.67502891  0.22406881     0.14900
C510        C  0.79685238  0.63680388  0.17537937    -0.24000
H511        H  0.77618359  0.67405582  0.32899686     0.05200
H512        H  0.72454960  0.69164391  0.32036463     0.08400
H513        H  0.74132281  0.64385045  0.30402429     0.08400
H514        H  0.82821574  0.63408678  0.16434268     0.08400
H515        H  0.77561077  0.62927411  0.15094413     0.08400
H516        H  0.79241689  0.61445197  0.19944726     0.05100
C517        C  0.87474550  0.79831751  0.26123646    -0.20700
C518        C  0.86304267  0.75784470  0.25900240    -0.07200
C519        C  0.87714668  0.74288508  0.22194870     0.13600
C520        C  0.87198347  0.76639784  0.18698302    -0.20700
C521        C  0.86239087  0.80775199  0.18966251    -0.07200
C522        C  0.87779502  0.82242330  0.22649485     0.13600
C523        C  0.90818347  0.85531408  0.22761478    -0.24100
H524        H  0.89068813  0.80884850  0.28693960     0.14900
H525        H  0.88250619  0.75332128  0.15968116     0.14900
C526        C  0.90900599  0.71115670  0.22132722    -0.24000
H527        H  0.93812589  0.84255402  0.23462626     0.05200
H528        H  0.90081460  0.87662894  0.25179380     0.08400
H529        H  0.91113159  0.87059782  0.19847916     0.08400
H530        H  0.90968097  0.69441988  0.24997378     0.08400
H531        H  0.93884603  0.72521506  0.21703452     0.08400
H532        H  0.90401479  0.69032271  0.19602825     0.05100
C533        C  0.90697188  0.69149809  0.37003365    -0.20700
C534        C  0.90573343  0.65089417  0.36274985    -0.07200
C535        C  0.87905731  0.63679383  0.33337945     0.13600
C536        C  0.85544951  0.66386109  0.31142429    -0.20700
C537        C  0.85696138  0.70577856  0.31716385    -0.07200
C538        C  0.88306954  0.71882845  0.34895986     0.13600
C539        C  0.88610548  0.76061141  0.36401928    -0.24100
H540        H  0.92727853  0.70217711  0.39301685     0.14900
H541        H  0.83577887  0.65079272  0.28960529     0.14900
C542        C  0.87446673  0.59304741  0.32553711    -0.24000
H543        H  0.90673789  0.76362158  0.39001149     0.05200
H544        H  0.85666616  0.77073954  0.37547021     0.08400
H545        H  0.89928770  0.77955227  0.34089455     0.08400
H546        H  0.86650115  0.57757602  0.35385254     0.08400
H547        H  0.90291927  0.58077689  0.31337496     0.08400
H548        H  0.85044744  0.58678977  0.30333217     0.05100
C549        C  0.71924931  0.77403531  0.26095201    -0.20700
C550        C  0.69858624  0.80900721  0.25904717    -0.07200
C551        C  0.66929139  0.80726605  0.22660624     0.13600
C552        C  0.67494587  0.77753442  0.19521331    -0.20700
C553        C  0.71114542  0.75424842  0.19536445    -0.07200
C554        C  0.73720480  0.76461197  0.22594612     0.13600
C555        C  0.77734105  0.78011627  0.21694333    -0.24100
H556        H  0.70037648  0.75047907  0.27272948     0.14900
H557        H  0.65258669  0.77324459  0.17207420     0.14900
C558        C  0.62973248  0.82868576  0.22834715    -0.24000
H559        H  0.77254502  0.80085534  0.19340243     0.05200
H560        H  0.79696493  0.75765819  0.20420217     0.08400
H561        H  0.79144751  0.79504361  0.24263252     0.08400
H562        H  0.62830657  0.85036158  0.25309876     0.08400
H563        H  0.60537454  0.80672021  0.23300293     0.08400
H564        H  0.62368455  0.84421148  0.19968869     0.05100
C565        C  0.78976178  0.87627089  0.25215486    -0.20700
C566        C  0.74909474  0.86443144  0.24640710    -0.07200
C567        C  0.73678705  0.87159247  0.20593986     0.13600
C568        C  0.76587941  0.86992521  0.17476171    -0.20700
C569        C  0.80690327  0.86205515  0.18330550    -0.07200
C570        C  0.81717212  0.88006255  0.21997663     0.13600
C571        C  0.84028885  0.91842363  0.21885884    -0.24100
H572        H  0.79857724  0.89019069  0.27939766     0.14900
H573        H  0.75664256  0.87772246  0.14511233     0.14900
C574        C  0.69627140  0.88759795  0.19504985    -0.24000
H575        H  0.85292785  0.92563002  0.24879327     0.05200
H576        H  0.81955712  0.94274823  0.21020083     0.08400
H577        H  0.86490773  0.91790068  0.19662944     0.08400
H578        H  0.69993797  0.91734157  0.18133055     0.08400
H579        H  0.67684819  0.89152506  0.22164126     0.08400
H580        H  0.68201162  0.86809455  0.17241496     0.05100
C581        C  0.73874625  0.78882343  0.33613061    -0.20700
C582        C  0.74670147  0.82623253  0.31747629    -0.07200
C583        C  0.78640513  0.83647028  0.32549230     0.13600
C584        C  0.81601925  0.80732251  0.31961770    -0.20700
C585        C  0.80576149  0.76648429  0.31460994    -0.07200
C586        C  0.76967224  0.75900154  0.33675156     0.13600
C587        C  0.77202206  0.73520340  0.37489217    -0.24100
H588        H  0.70866107  0.78101086  0.34553883     0.14900
H589        H  0.84563902  0.81641562  0.32731935     0.14900
C590        C  0.79520668  0.87096617  0.35275046    -0.24000
H591        H  0.77612051  0.75578257  0.40057493     0.05200
H592        H  0.79817322  0.71489220  0.37514809     0.08400
H593        H  0.74386569  0.71847139  0.38021987     0.08400
H594        H  0.76878820  0.89090299  0.35534718     0.08400
H595        H  0.80236975  0.85962288  0.38318964     0.08400
H596        H  0.82152066  0.88805793  0.34188088     0.05100
C597        C  0.16447962  0.90194724  0.78642284    -0.20700
C598        C  0.18757419  0.87235330  0.80566437    -0.07200
C599        C  0.17999746  0.86643455  0.84763232     0.13600
C600        C  0.15542453  0.89366716  0.86840549    -0.20700
C601        C  0.13553347  0.92498040  0.84914254    -0.07200
C602        C  0.13956775  0.92853639  0.80716584     0.13600
C603        C  0.11726001  0.95955252  0.78343717    -0.24100
H604        H  0.16546393  0.90418011  0.75422198     0.14900
H605        H  0.15076810  0.88976669  0.90035528     0.14900
C606        C  0.19281384  0.83042072  0.87135454    -0.24000
H607        H  0.12328559  0.95711600  0.75072488     0.05200
H608        H  0.12692065  0.98954850  0.79301033     0.08400
H609        H  0.08439663  0.95610391  0.78796684     0.08400
H610        H  0.22549085  0.82830159  0.87470889     0.08400
H611        H  0.18060609  0.80321952  0.85764195     0.08400
H612        H  0.18086586  0.83093810  0.90249488     0.05100
C613        C  0.16609046  0.76576620  0.71658288    -0.20700
C614        C  0.20340138  0.75830282  0.69590608    -0.07200
C615        C  0.23259911  0.78531481  0.70610503     0.13600
C616        C  0.22066078  0.82248288  0.71112982    -0.20700
C617        C  0.19616910  0.82886567  0.74309588    -0.07200
C618        C  0.16382507  0.79979453  0.74391770     0.13600
C619        C  0.12833858  0.80449889  0.77125350    -0.24100
H620        H  0.14098500  0.74572236  0.71323498     0.14900
H621        H  0.24358395  0.84052166  0.70290587     0.14900
C622        C  0.27491290  0.77629777  0.71366000    -0.24000
H623        H  0.10649801  0.78003391  0.76694326     0.05200
H624        H  0.11295974  0.83293166  0.76472989     0.08400
H625        H  0.13791852  0.80422434  0.80298173     0.08400
H626        H  0.27343716  0.75303360  0.73444128     0.08400
H627        H  0.29048344  0.76445603  0.68813401     0.08400
H628        H  0.29156668  0.80097980  0.72757362     0.05100
C629        C  0.12793733  0.69055379  0.59652549    -0.20700
C630        C  0.13458243  0.64972102  0.59586283    -0.07200
C631        C  0.16598034  0.63397987  0.61896491     0.13600
C632        C  0.19153159  0.65984857  0.63970631    -0.20700
C633        C  0.18505084  0.70164486  0.64196650    -0.07200
C634        C  0.15066323  0.71630153  0.62068694     0.13600
C635        C  0.13396643  0.75764118  0.62287433    -0.24100
H636        H  0.10284409  0.70243377  0.57958967     0.14900
H637        H  0.21688619  0.64601438  0.65406722     0.14900
C638        C  0.17354969  0.58992924  0.62121552    -0.24000
H639        H  0.10157193  0.75623474  0.63089541     0.05200
H640        H  0.13679645  0.77224674  0.59315378     0.08400
H641        H  0.14745112  0.77627754  0.64581913     0.08400
H642        H  0.17826176  0.57769706  0.59064278     0.08400
H643        H  0.14754946  0.57502556  0.63560367     0.08400
H644        H  0.20048040  0.58274723  0.63947579     0.05100
C645        C  0.30678977  0.78405212  0.61861422    -0.20700
C646        C  0.29597910  0.81984067  0.63910569    -0.07200
C647        C  0.25519797  0.82828324  0.62834632     0.13600
C648        C  0.22732102  0.79633464  0.62372284    -0.20700
C649        C  0.23947194  0.75597451  0.62913257    -0.07200
C650        C  0.27934315  0.75160834  0.61465551     0.13600
C651        C  0.28868817  0.72005331  0.58425160    -0.24100
H652        H  0.33494439  0.78236793  0.60310756     0.14900
H653        H  0.19644636  0.80425059  0.61995848     0.14900
C654        C  0.24149439  0.86765770  0.61328359    -0.24000
H655        H  0.31814179  0.70607232  0.59089561     0.05200
H656        H  0.29057719  0.73370137  0.55399881     0.08400
H657        H  0.26481805  0.69706677  0.58357916     0.08400
H658        H  0.22645870  0.86387141  0.58379320     0.08400
H659        H  0.26727388  0.88718548  0.60731224     0.08400
H660        H  0.21929760  0.88071642  0.63434516     0.05100
C661        C  0.24166815  0.90548860  0.72164160    -0.20700
C662        C  0.24765054  0.88540940  0.75940428    -0.07200
C663        C  0.28820427  0.88876676  0.76919597     0.13600
C664        C  0.31595343  0.87698167  0.73950928    -0.20700
C665        C  0.30564989  0.87589476  0.69788253    -0.07200
C666        C  0.27295984  0.90328686  0.69137996     0.13600
C667        C  0.27690972  0.93772450  0.66305078    -0.24100
H668        H  0.21310932  0.91806118  0.71325172     0.14900
H669        H  0.34634272  0.88289896  0.74762067     0.14900
C670        C  0.29994465  0.92538418  0.79252415    -0.24000
H671        H  0.24855848  0.94283919  0.64640940     0.05200
H672        H  0.30209573  0.93390938  0.64168304     0.08400
H673        H  0.28319224  0.96483408  0.68082712     0.08400
H674        H  0.27819115  0.93163600  0.81699710     0.08400
H675        H  0.33051192  0.92239661  0.80545312     0.08400
H676        H  0.30005374  0.95141337  0.77213814     0.05100
C677        C  0.26707322  0.67913024  0.75687521    -0.20700
C678        C  0.30726607  0.68919372  0.74812901    -0.07200
C679        C  0.31444774  0.67801283  0.70775365     0.13600
C680        C  0.28593437  0.68840464  0.67789472    -0.20700
C681        C  0.24674260  0.70010953  0.68910163    -0.07200
C682        C  0.23599743  0.68610168  0.72843453     0.13600
C683        C  0.19343126  0.67809416  0.74131085    -0.24100
H684        H  0.26009713  0.66500130  0.78482650     0.14900
H685        H  0.29205414  0.68067597  0.64739763     0.14900
C686        C  0.34191931  0.64375581  0.69875128    -0.24000
H687        H  0.19097301  0.64712161  0.75216772     0.05200
H688        H  0.17160269  0.68160413  0.71667783     0.08400
H689        H  0.18487088  0.69847809  0.76597150     0.08400
H690        H  0.35764719  0.63345929  0.72619630     0.08400
H691        H  0.36399535  0.65168122  0.67511505     0.08400
H692        H  0.32384438  0.61838978  0.68764291     0.05100
C693        C  0.31232130  0.78833426  0.81537825    -0.20700
C694        C  0.30112000  0.75143269  0.79910045    -0.07200
C695        C  0.25931341  0.74484467  0.80672370     0.13600
C696        C  0.23220486  0.77666893  0.80109345    -0.20700
C697        C  0.24547694  0.81662257  0.80018150    -0.07200
C698        C  0.28454444  0.82032283  0.81816719     0.13600
C699        C  0.29441167  0.85185291  0.84842360    -0.24100
H700        H  0.34075902  0.79084659  0.83015324     0.14900
H701        H  0.20063439  0.76998107  0.80165912     0.14900
C702        C  0.24576001  0.71504329  0.83772695    -0.24000
H703        H  0.32380005  0.86552892  0.84131633     0.05200
H704        H  0.29736074  0.83800501  0.87850528     0.08400
H705        H  0.27039206  0.87445636  0.85049920     0.08400
H706        H  0.26780140  0.69111697  0.84295970     0.08400
H707        H  0.21679278  0.70147060  0.82879537     0.08400
H708        H  0.24114263  0.73035403  0.86688580     0.05100
C709        C  0.36248476  0.74680979  0.70021507    -0.20700
C710        C  0.35606088  0.75287310  0.74235644    -0.07200
C711        C  0.37492792  0.78901309  0.75410158     0.13600
C712        C  0.37530234  0.82103135  0.72655380    -0.20700
C713        C  0.35948876  0.81747225  0.68717348    -0.07200
C714        C  0.36860164  0.77896608  0.67362567     0.13600
C715        C  0.39837752  0.77345348  0.63996887    -0.24100
H716        H  0.36850693  0.71842635  0.68763579     0.14900
H717        H  0.39357719  0.84576829  0.73450476     0.14900
C718        C  0.40305852  0.79225865  0.78939955    -0.24000
H719        H  0.39009593  0.74752339  0.62120363     0.05200
H720        H  0.42859827  0.76786901  0.65284237     0.08400
H721        H  0.40030107  0.80032169  0.62084084     0.08400
H722        H  0.39624371  0.81939034  0.80700878     0.08400
H723        H  0.40211485  0.76622809  0.80938540     0.08400
H724        H  0.43434004  0.79507818  0.77813125     0.05100
C725        C  0.87000323  0.21487495  0.83682586    -0.20700
C726        C  0.84942466  0.19476370  0.80570921    -0.07200
C727        C  0.85694569  0.15239517  0.80322997     0.13600
C728        C  0.88074938  0.13385677  0.83250893    -0.20700
C729        C  0.90094497  0.15465292  0.86234709    -0.07200
C730        C  0.89484987  0.19582189  0.86507947     0.13600
C731        C  0.91481590  0.22029504  0.89718141    -0.24100
H732        H  0.86775849  0.24629618  0.83913336     0.14900
H733        H  0.88554627  0.10213355  0.83089202     0.14900
C734        C  0.84554412  0.12462026  0.76921332    -0.24000
H735        H  0.90655004  0.25209609  0.89502420     0.05200
H736        H  0.94796942  0.21810665  0.89429828     0.08400
H737        H  0.90524938  0.20966911  0.92724377     0.08400
H738        H  0.85622539  0.09380740  0.77398795     0.08400
H739        H  0.86057714  0.13364458  0.74125477     0.08400
H740        H  0.81297045  0.12100458  0.76558479     0.05100
C741        C  0.72583089  0.18438217  0.72961586    -0.20700
C742        C  0.73553251  0.18943182  0.68812071    -0.07200
C743        C  0.77461697  0.17619439  0.67908668     0.13600
C744        C  0.80488336  0.18114511  0.70850821    -0.20700
C745        C  0.79534007  0.19112802  0.74918832    -0.07200
C746        C  0.75581774  0.17882714  0.75862016     0.13600
C747        C  0.74657223  0.15219700  0.79348341    -0.24100
H748        H  0.69621161  0.18955223  0.74132908     0.14900
H749        H  0.83471911  0.17423012  0.69935741     0.14900
C750        C  0.78172326  0.14790366  0.64497229    -0.24000
H751        H  0.74196021  0.12165602  0.78203882     0.05200
H752        H  0.71813032  0.16092937  0.80822905     0.08400
H753        H  0.77162298  0.15127157  0.81530553     0.08400
H754        H  0.81039457  0.15467855  0.62936962     0.08400
H755        H  0.75645573  0.14855318  0.62323463     0.08400
H756        H  0.78408233  0.11741143  0.65721014     0.05100
C757        C  0.75326485  0.31721677  0.62865830    -0.20700
C758        C  0.79419335  0.30932296  0.63778770    -0.07200
C759        C  0.80585735  0.27177180  0.62035666     0.13600
C760        C  0.77760530  0.24005982  0.61968478    -0.20700
C761        C  0.73698026  0.24637711  0.62999809    -0.07200
C762        C  0.72525756  0.28620087  0.62088623     0.13600
C763        C  0.68294128  0.29638661  0.60850498    -0.24100
H764        H  0.74178977  0.34660893  0.62923181     0.14900
H765        H  0.78665071  0.21202057  0.60767305     0.14900
C766        C  0.84346435  0.26580192  0.59571719    -0.24000
H767        H  0.67853843  0.32892387  0.60652429     0.05200
H768        H  0.66041909  0.28452600  0.62973502     0.08400
H769        H  0.67695049  0.28386223  0.57833610     0.08400
H770        H  0.86395890  0.29159307  0.59737974     0.08400
H771        H  0.83505258  0.26149522  0.56378749     0.08400
H772        H  0.85932328  0.23837994  0.60509374     0.05100
C773        C  0.86442115  0.27169291  0.68216314    -0.20700
C774        C  0.85233360  0.31072300  0.69195677    -0.07200
C775        C  0.86636023  0.31830352  0.73178024     0.13600
C776        C  0.85976692  0.28861608  0.76133827    -0.20700
C777        C  0.84826806  0.24973877  0.75027467    -0.07200
C778        C  0.86502482  0.24124528  0.71190447     0.13600
C779        C  0.89822349  0.21107289  0.70861736    -0.24100
H780        H  0.88446994  0.26852867  0.65710697     0.14900
H781        H  0.87213851  0.29343388  0.79074399     0.14900
C782        C  0.90477244  0.34173455  0.73752165    -0.24000
H783        H  0.92767346  0.22647733  0.70965982     0.05200
H784        H  0.89629594  0.19486913  0.67967540     0.08400
H785        H  0.89752880  0.18988111  0.73391909     0.08400
H786        H  0.92076171  0.34587498  0.70857375     0.08400
H787        H  0.92623333  0.32556426  0.75712832     0.08400
H788        H  0.89905790  0.37082084  0.75180640     0.05100
C789        C  0.87629122  0.39104847  0.65715505    -0.20700
C790        C  0.84883262  0.36628550  0.63694867    -0.07200
C791        C  0.84677104  0.37135210  0.59389796     0.13600
C792        C  0.87634322  0.39420961  0.57423439    -0.20700
C793        C  0.90515777  0.41594539  0.59520547    -0.07200
C794        C  0.90467749  0.41478072  0.63745465     0.13600
C795        C  0.93471583  0.43738033  0.66238703    -0.24100
H796        H  0.87500961  0.39289645  0.68923244     0.14900
H797        H  0.87578958  0.39688058  0.54180679     0.14900
C798        C  0.81208843  0.35871211  0.56736412    -0.24000
H799        H  0.93156197  0.43078643  0.69490193     0.05200
H800        H  0.93019605  0.46969519  0.65849353     0.08400
H801        H  0.96572082  0.42909180  0.65328644     0.08400
H802        H  0.81503885  0.37039143  0.53634150     0.08400
H803        H  0.78341886  0.37083564  0.57862323     0.08400
H804        H  0.81004268  0.32654047  0.56356655     0.05100
C805        C  0.71190825  0.31432053  0.70779283    -0.20700
C806        C  0.68609478  0.32119012  0.73855852    -0.07200
C807        C  0.65356141  0.29210347  0.73806512     0.13600
C808        C  0.65588830  0.25944717  0.70899938    -0.20700
C809        C  0.69450783  0.25033382  0.69166363    -0.07200
C810        C  0.72374618  0.27708668  0.70364180     0.13600
C811        C  0.76591979  0.26880016  0.71412557    -0.24100
H812        H  0.73560506  0.33143331  0.70150756     0.14900
H813        H  0.62981574  0.24158903  0.70275911     0.14900
C814        C  0.61841005  0.29332067  0.76620677    -0.24000
H815        H  0.76191922  0.25119432  0.73949360     0.05200
H816        H  0.78377925  0.25332881  0.69197717     0.08400
H817        H  0.78259630  0.29479953  0.72518234     0.08400
H818        H  0.59025944  0.29652954  0.74870919     0.08400
H819        H  0.62017584  0.31796877  0.78781969     0.08400
H820        H  0.61708110  0.26521205  0.78343946     0.05100
C821        C  0.80017632  0.28758501  0.81931281    -0.20700
C822        C  0.79089462  0.24873854  0.80549821    -0.07200
C823        C  0.74894143  0.24269342  0.81202838     0.13600
C824        C  0.72165601  0.27356367  0.80092378    -0.20700
C825        C  0.73457273  0.31360369  0.79655018    -0.07200
C826        C  0.77215579  0.31945187  0.81675856     0.13600
C827        C  0.78041773  0.35410544  0.84384023    -0.24100
H828        H  0.82768181  0.29349621  0.83496727     0.14900
H829        H  0.68995562  0.26712913  0.80132688     0.14900
C830        C  0.73761384  0.22344720  0.85123161    -0.24000
H831        H  0.81014177  0.36708039  0.83657699     0.05200
H832        H  0.78156822  0.34363328  0.87539546     0.08400
H833        H  0.75682925  0.37695320  0.84231789     0.08400
H834        H  0.73921512  0.24579580  0.87566978     0.08400
H835        H  0.75867770  0.19934755  0.85936450     0.08400
H836        H  0.70636571  0.21200658  0.85024560     0.05100
C837        C  0.72999100  0.39780036  0.71294284    -0.20700
C838        C  0.73510911  0.38115967  0.75250793    -0.07200
C839        C  0.77541199  0.38661286  0.76305117     0.13600
C840        C  0.80482653  0.37378736  0.73523624    -0.20700
C841        C  0.79613627  0.36844595  0.69377073    -0.07200
C842        C  0.76213943  0.39354868  0.68364184     0.13600
C843        C  0.76028840  0.41851085  0.64641745    -0.24100
H844        H  0.70137214  0.40874766  0.70286678     0.14900
H845        H  0.83500491  0.38104956  0.74316652     0.14900
C846        C  0.78511872  0.42527041  0.78375270    -0.24000
H847        H  0.73352049  0.41123232  0.62806422     0.05200
H848        H  0.78789231  0.41597245  0.62834009     0.08400
H849        H  0.75776825  0.45007285  0.65542274     0.08400
H850        H  0.76200423  0.43297216  0.80651356     0.08400
H851        H  0.78565599  0.44955061  0.76124285     0.08400
H852        H  0.81501879  0.42405518  0.79839331     0.05100
C853        C  0.69026150  0.16625757  0.31026506    -0.20700
C854        C  0.68478676  0.20803339  0.31281491    -0.07200
C855        C  0.65046470  0.22088237  0.33596636     0.13600
C856        C  0.62703444  0.19301289  0.35726992    -0.20700
C857        C  0.63499905  0.15253317  0.35574277    -0.07200
C858        C  0.66662121  0.13895004  0.33155039     0.13600
C859        C  0.67502469  0.09519260  0.32749186    -0.24100
H860        H  0.71280507  0.15353982  0.29106469     0.14900
H861        H  0.60155791  0.20304475  0.37493783     0.14900
C862        C  0.63373131  0.26236446  0.33758238    -0.24000
H863        H  0.70071139  0.08915012  0.30706269     0.05200
H864        H  0.64814803  0.07997391  0.31522821     0.08400
H865        H  0.68236781  0.08246040  0.35730193     0.08400
H866        H  0.65154210  0.28489870  0.32232916     0.08400
H867        H  0.63034366  0.27180870  0.36934413     0.08400
H868        H  0.60345117  0.26260713  0.32361974     0.05100
C869        C  0.70018265  0.87885581  0.59291807    -0.20700
C870        C  0.68883123  0.87135343  0.63329076    -0.07200
C871        C  0.65109892  0.88778514  0.64607181     0.13600
C872        C  0.62705611  0.90877985  0.61854196    -0.20700
C873        C  0.63892900  0.91597585  0.57883075    -0.07200
C874        C  0.67603554  0.90009898  0.56578173     0.13600
C875        C  0.69094526  0.90515242  0.52330631    -0.24100
H876        H  0.72904575  0.86884821  0.58203471     0.14900
H877        H  0.59871670  0.92090095  0.62898386     0.14900
C878        C  0.63342196  0.88575165  0.68778032    -0.24000
H879        H  0.71945242  0.88885347  0.51788833     0.05200
H880        H  0.69693220  0.93687333  0.51708902     0.08400
H881        H  0.66831010  0.89348536  0.50191065     0.08400
H882        H  0.65123526  0.87018319  0.71018515     0.08400
H883        H  0.60383206  0.87061546  0.68648977     0.08400
H884        H  0.62870679  0.91626690  0.69933552     0.05100
C885        C  0.66368800  0.93783880  0.32350031    -0.20700
C886        C  0.63409646  0.91943506  0.34639371    -0.07200
C887        C  0.63224049  0.87795903  0.34736277     0.13600
C888        C  0.65986505  0.85576267  0.32460177    -0.20700
C889        C  0.69038074  0.87358697  0.30088281    -0.07200
C890        C  0.69271939  0.91614904  0.30196576     0.13600
C891        C  0.72644976  0.94053677  0.28450757    -0.24100
H892        H  0.66518661  0.96992797  0.32427244     0.14900
H893        H  0.65760985  0.82383497  0.32563899     0.14900
C894        C  0.60163542  0.85713697  0.37310817    -0.24000
H895        H  0.72229556  0.97274010  0.28994971     0.05200
H896        H  0.72841571  0.93749460  0.25162141     0.08400
H897        H  0.75488085  0.93292480  0.29954437     0.08400
H898        H  0.57089830  0.86583932  0.36366284     0.08400
H899        H  0.60606576  0.86548657  0.40503753     0.08400
H900        H  0.60424421  0.82442478  0.37069479     0.05100
C901        C  0.40824824  0.91907963  0.61783814    -0.20700
C902        C  0.40258679  0.91375192  0.57678288    -0.07200
C903        C  0.37087252  0.88958188  0.56372700     0.13600
C904        C  0.34776028  0.86913419  0.59231132    -0.20700
C905        C  0.35323629  0.87357929  0.63455899    -0.07200
C906        C  0.38273621  0.90229250  0.64656353     0.13600
C907        C  0.38639677  0.92035495  0.68781519    -0.24100
H908        H  0.43159827  0.93918799  0.62772273     0.14900
H909        H  0.32474260  0.85030253  0.58022313     0.14900
C910        C  0.36124851  0.88481841  0.51975807    -0.24000
H911        H  0.40667866  0.94647034  0.68812814     0.05200
H912        H  0.40036706  0.89988108  0.70885950     0.08400
H913        H  0.35732251  0.93228211  0.69829185     0.08400
H914        H  0.38819822  0.87419948  0.50328561     0.08400
H915        H  0.35120552  0.91356644  0.50712843     0.08400
H916        H  0.33663391  0.86320770  0.51469088    -0.01300
C917        C  0.67824840  0.19817654  0.59269532    -0.20700
C918        C  0.67783187  0.19465454  0.63542456    -0.07200
C919        C  0.64953386  0.16620537  0.65117792     0.13600
C920        C  0.62474324  0.14431281  0.62490542    -0.20700
C921        C  0.62752431  0.14738539  0.58324631    -0.07200
C922        C  0.65378297  0.17570614  0.56700337     0.13600
C923        C  0.65591207  0.18311634  0.52235278    -0.24100
H924        H  0.69887148  0.21762121  0.57760080     0.14900
H925        H  0.60442386  0.12229004  0.63708039     0.14900
C926        C  0.64595764  0.15422416  0.69453587    -0.24000
H927        H  0.67549284  0.20870544  0.51491517     0.05200
H928        H  0.62540828  0.18973700  0.51065703     0.08400
H929        H  0.66848564  0.15690575  0.50669327     0.08400
H930        H  0.63923292  0.17966437  0.71397137     0.08400
H931        H  0.67305583  0.13753096  0.70358627     0.08400
H932        H  0.62069833  0.13339955  0.69988027     0.05100
C933        C  0.33481989  0.89945776  0.31635212    -0.20700
C934        C  0.35253709  0.86586776  0.29795902    -0.07200
C935        C  0.39578822  0.86231358  0.30233801     0.13600
C936        C  0.41754683  0.89255487  0.32177568    -0.20700
C937        C  0.39873147  0.92424599  0.34061968    -0.07200
C938        C  0.35676703  0.92802629  0.33760510     0.13600
C939        C  0.33476810  0.96287313  0.35566515    -0.24100
H940        H  0.30305164  0.90402902  0.31445350     0.14900
H941        H  0.44990571  0.89020954  0.32483567     0.14900
C942        C  0.42126065  0.82681519  0.29122440    -0.24000
H943        H  0.30229529  0.96265216  0.34801975     0.05200
H944        H  0.34775996  0.99095277  0.34416423     0.08400
H945        H  0.33703519  0.96210448  0.38884999     0.08400
H946        H  0.42126275  0.82057944  0.25886046     0.08400
H947        H  0.41239052  0.80101078  0.30934498     0.08400
H948        H  0.45354298  0.83114567  0.29839379     0.05100
C949        C  0.26618076  0.75004747  0.32980241    -0.20700
C950        C  0.22711324  0.76488962  0.32044259    -0.07200
C951        C  0.22471912  0.80564867  0.33059301     0.13600
C952        C  0.25950774  0.82974432  0.32560934    -0.20700
C953        C  0.29559982  0.81392603  0.30935125    -0.07200
C954        C  0.30074875  0.77481544  0.32496271     0.13600
C955        C  0.33562193  0.76562020  0.35203048    -0.24100
H956        H  0.27062885  0.71883757  0.33553829     0.14900
H957        H  0.25900756  0.85959901  0.33703872     0.14900
C958        C  0.19307617  0.81997164  0.35943061    -0.24000
H959        H  0.34833456  0.73598346  0.34504108     0.05200
H960        H  0.32502320  0.76509245  0.38365161     0.08400
H961        H  0.35911939  0.78873963  0.35005496     0.08400
H962        H  0.20742445  0.82704547  0.38863018     0.08400
H963        H  0.17034772  0.79680578  0.36536592     0.08400
H964        H  0.17852058  0.84743447  0.34833225     0.05100
C965        C  0.11311813  0.69032160  0.35365362    -0.20700
C966        C  0.13212581  0.65562948  0.36597892    -0.07200
C967        C  0.17187681  0.64840187  0.35385190     0.13600
C968        C  0.19188973  0.67650662  0.32985034    -0.20700
C969        C  0.17274632  0.71125088  0.31541359    -0.07200
C970        C  0.13198481  0.71793846  0.32831066     0.13600
C971        C  0.10639283  0.75296518  0.31625480    -0.24100
H972        H  0.08240380  0.69531350  0.36338433     0.14900
H973        H  0.22289424  0.67078601  0.32210642     0.14900
C974        C  0.19350209  0.61149027  0.36711705    -0.24000
H975        H  0.07665282  0.75294055  0.33143497     0.05200
H976        H  0.09973515  0.75215907  0.28375133     0.08400
H977        H  0.12072976  0.78105299  0.32482452     0.08400
H978        H  0.17732010  0.58493233  0.35600723     0.08400
H979        H  0.19479005  0.61053394  0.40040004     0.08400
H980        H  0.22473413  0.61038119  0.35537674     0.05100
C981        C  0.16545808  0.80739150  0.26180259    -0.20700
C982        C  0.17171599  0.76592727  0.25933208    -0.07200
C983        C  0.15543396  0.74914602  0.22331065     0.13600
C984        C  0.15143459  0.77354337  0.18902685    -0.20700
C985        C  0.16386648  0.81366550  0.18959133    -0.07200
C986        C  0.15389772  0.82929889  0.22746631     0.13600
C987        C  0.11509918  0.85208694  0.23072245    -0.24100
H988        H  0.16235142  0.82159132  0.29014627     0.14900
H989        H  0.13653010  0.76104233  0.16352474     0.14900
C990        C  0.14036917  0.70729928  0.21975873    -0.24000
H991        H  0.11444475  0.87052561  0.25828786     0.05200
H992        H  0.08958758  0.83095016  0.23217830     0.08400
H993        H  0.11057817  0.87134474  0.20409822     0.08400
H994        H  0.10827939  0.70781953  0.21073113     0.08400
H995        H  0.14192866  0.69073355  0.24820084     0.08400
H996        H  0.15760344  0.69134061  0.19621098     0.05100
C997        C  0.25315724  0.87549610  0.25716456    -0.20700
C998        C  0.29273553  0.86288462  0.24739505    -0.07200
C999        C  0.30060146  0.87448510  0.20739722     0.13600
C1000       C  0.27088294  0.86500491  0.17833849    -0.20700
C1001       C  0.23080299  0.85610218  0.19011950    -0.07200
C1002       C  0.22271812  0.87552201  0.22758714     0.13600
C1003       C  0.19084481  0.90685668  0.23258701    -0.24100
H1004       H  0.24680876  0.89095936  0.28461958     0.14900
H1005       H  0.27607621  0.87441755  0.14810139     0.14900
C1006       C  0.31937934  0.91479248  0.20183633    -0.24000
H1007       H  0.17528970  0.90304630  0.26179421     0.05200
H1008       H  0.20535971  0.93645830  0.23280536     0.08400
H1009       H  0.16875212  0.90689023  0.20798998     0.08400
H1010       H  0.33207140  0.91813827  0.17121275     0.08400
H1011       H  0.34303194  0.92056458  0.22448186     0.08400
H1012       H  0.29595043  0.93793312  0.20588197     0.05100
C1013       C  0.18851030  0.90365563  0.13208384    -0.20700
C1014       C  0.17950055  0.86242405  0.13047630    -0.07200
C1015       C  0.15339909  0.85038458  0.09841166     0.13600
C1016       C  0.13484271  0.87886009  0.07397070    -0.20700
C1017       C  0.14111596  0.91934611  0.07902953    -0.07200
C1018       C  0.16923085  0.93195030  0.10778088     0.13600
C1019       C  0.17980027  0.97514615  0.11255886    -0.24100
H1020       H  0.21056359  0.91501242  0.15265616     0.14900
H1021       H  0.11412364  0.86924278  0.05087661     0.14900
C1022       C  0.14506009  0.80811954  0.08702975    -0.24000
H1023       H  0.20421958  0.97964304  0.13477172     0.05200
H1024       H  0.15332187  0.99207442  0.12331717     0.08400
H1025       H  0.19011200  0.98734846  0.08337068     0.08400
H1026       H  0.12897733  0.79318494  0.11130501     0.08400
H1027       H  0.17312090  0.79308243  0.07793077     0.08400
H1028       H  0.12496210  0.80561862  0.06056573     0.05100
C1029       C  0.35835832  0.78482993  0.17644150    -0.20700
C1030       C  0.35272396  0.74512043  0.18789861    -0.07200
C1031       C  0.37004450  0.73979929  0.22664715     0.13600
C1032       C  0.36118152  0.76854688  0.25662533    -0.20700
C1033       C  0.34688221  0.80675808  0.24600805    -0.07200
C1034       C  0.35932429  0.81547187  0.20559722     0.13600
C1035       C  0.38512257  0.85058826  0.19532105    -0.24100
H1036       H  0.37023401  0.79067624  0.14685978     0.14900
H1037       H  0.36785740  0.76075492  0.28663405     0.14900
C1038       C  0.39819581  0.70671484  0.23629666    -0.24000
H1039       H  0.37397412  0.86513195  0.16771017     0.05200
H1040       H  0.41613925  0.84023874  0.18881401     0.08400
H1041       H  0.38725957  0.87182931  0.22041773     0.08400
H1042       H  0.40732741  0.69094168  0.20866747     0.08400
H1043       H  0.38448463  0.68643807  0.25861154     0.08400
H1044       H  0.42613070  0.71920874  0.24933383     0.05100
C1045       C  0.29460276  0.72057896  0.24119057    -0.20700
C1046       C  0.29204630  0.69897110  0.20675334    -0.07200
C1047       C  0.25777277  0.67215747  0.21017634     0.13600
C1048       C  0.22698562  0.68124367  0.24037847    -0.20700
C1049       C  0.22815500  0.71932082  0.26026693    -0.07200
C1050       C  0.26087725  0.74161268  0.24830642     0.13600
C1051       C  0.25476496  0.77970586  0.22842418    -0.24100
H1052       H  0.30418458  0.70270549  0.26660071     0.14900
H1053       H  0.20354311  0.66006475  0.24685587     0.14900
C1054       C  0.25715844  0.63189684  0.19108152    -0.24000
H1055       H  0.23043791  0.77565520  0.20751971     0.05200
H1056       H  0.28110399  0.78964905  0.21131922     0.08400
H1057       H  0.24522095  0.80144309  0.25053079     0.08400
H1058       H  0.26295398  0.60926129  0.21451357     0.08400
H1059       H  0.28025799  0.62871188  0.16748747     0.08400
H1060       H  0.22723464  0.62556026  0.17805314     0.05100
C1061       C  0.29258674  0.77842826  0.12448849    -0.20700
C1062       C  0.28501373  0.74204529  0.14471439    -0.07200
C1063       C  0.24500240  0.72960984  0.13782803     0.13600
C1064       C  0.21455636  0.75854873  0.13627349    -0.20700
C1065       C  0.22387606  0.79956419  0.13727865    -0.07200
C1066       C  0.26131338  0.80617083  0.11797355     0.13600
C1067       C  0.26604935  0.83557068  0.08429143    -0.24100
H1068       H  0.32082868  0.78355315  0.10968339     0.14900
H1069       H  0.18523063  0.74852512  0.12791727     0.14900
C1070       C  0.23526514  0.68973749  0.12072633    -0.24000
H1071       H  0.29399077  0.85309476  0.08795635     0.05200
H1072       H  0.24015071  0.85591044  0.08183081     0.08400
H1073       H  0.26849213  0.81914234  0.05551673     0.08400
H1074       H  0.21071123  0.67591582  0.13822878     0.08400
H1075       H  0.26196767  0.67039912  0.11891075     0.08400
H1076       H  0.22427654  0.69351931  0.08950850     0.05100
C1077       C  0.66161757  0.40240389  0.07450533    -0.20700
C1078       C  0.63519283  0.42753068  0.09436481    -0.07200
C1079       C  0.63430077  0.42721054  0.13657647     0.13600
C1080       C  0.65950930  0.40110273  0.15738638    -0.20700
C1081       C  0.68767933  0.37582917  0.13837559    -0.07200
C1082       C  0.68873946  0.37766396  0.09484970     0.13600
C1083       C  0.71860526  0.35794403  0.06699961    -0.24100
H1084       H  0.66187626  0.40336221  0.04196555     0.14900
H1085       H  0.65623505  0.40012198  0.18941955     0.14900
C1086       C  0.60788368  0.45497630  0.16035318    -0.24000
H1087       H  0.71214328  0.36350958  0.03478668     0.05200
H1088       H  0.71810910  0.32546382  0.06910588     0.08400
H1089       H  0.74856224  0.37113569  0.07139941     0.08400
H1090       H  0.57578542  0.44851308  0.15431607     0.08400
H1091       H  0.61479886  0.48611151  0.15216210     0.08400
H1092       H  0.61268921  0.45191035  0.19319334     0.05100
C1093       C  0.63748081  0.65215355  0.81872505    -0.20700
C1094       C  0.63536592  0.65809386  0.86002357    -0.07200
C1095       C  0.65767268  0.68912266  0.87693557     0.13600
C1096       C  0.68163259  0.71316438  0.85207234    -0.20700
C1097       C  0.68429910  0.70845828  0.80964814    -0.07200
C1098       C  0.66251220  0.67494500  0.79358395     0.13600
C1099       C  0.66645176  0.65885346  0.75149841    -0.24100
H1100       H  0.62091515  0.62739656  0.80627603     0.14900
H1101       H  0.69920813  0.73503708  0.86734884     0.14900
C1102       C  0.65576886  0.69766151  0.92131560    -0.24000
H1103       H  0.64756949  0.63223423  0.74633455     0.05200
H1104       H  0.69753933  0.64871299  0.74576961     0.08400
H1105       H  0.65592519  0.68029087  0.72929066     0.08400
H1106       H  0.66867214  0.67250978  0.93835383     0.08400
H1107       H  0.62405406  0.70240004  0.93058162     0.08400
H1108       H  0.67301134  0.72462553  0.92947040     0.05100
C1109       C  0.63279272  0.65855976  0.13145793    -0.20700
C1110       C  0.63985371  0.65467325  0.09017026    -0.07200
C1111       C  0.67177298  0.67658886  0.07330296     0.13600
C1112       C  0.69724529  0.69875969  0.09829502    -0.20700
C1113       C  0.69256502  0.70110363  0.14067728    -0.07200
C1114       C  0.65738274  0.68197614  0.15663756     0.13600
C1115       C  0.64198454  0.68578820  0.19902682    -0.24100
H1116       H  0.60737780  0.64312239  0.14452085     0.14900
H1117       H  0.72166598  0.71361047  0.08337650     0.14900
C1118       C  0.67928119  0.67754988  0.02862481    -0.24000
H1119       H  0.61035349  0.69630679  0.19833206     0.05200
H1120       H  0.65798449  0.70713483  0.21775821     0.08400
H1121       H  0.64260099  0.65637376  0.21390547     0.08400
H1122       H  0.65141814  0.68669799  0.01285536     0.08400
H1123       H  0.68921747  0.64802714  0.01789833     0.08400
H1124       H  0.70319386  0.69895746  0.02029660     0.05100
C1125       C  0.42045395  0.65973904  0.81639051    -0.20700
C1126       C  0.40746820  0.65328502  0.85572756    -0.07200
C1127       C  0.37307967  0.67362966  0.86938330     0.13600
C1128       C  0.35186081  0.69799917  0.84269190    -0.20700
C1129       C  0.36202707  0.70193167  0.80147335    -0.07200
C1130       C  0.39951078  0.68419271  0.78947533     0.13600
C1131       C  0.42120315  0.69228592  0.75050167    -0.24100
H1132       H  0.44788013  0.64545447  0.80642906     0.14900
H1133       H  0.32703316  0.71399406  0.85532451     0.14900
C1134       C  0.35813194  0.67019254  0.91204424    -0.24000
H1135       H  0.42821793  0.72412178  0.74738889     0.05200
H1136       H  0.40425059  0.68125659  0.72489160     0.08400
H1137       H  0.45069788  0.67696696  0.74867687     0.08400
H1138       H  0.38225682  0.67888951  0.93325026     0.08400
H1139       H  0.34835721  0.63936385  0.91813396     0.08400
H1140       H  0.33184700  0.68965896  0.91790780     0.05100
C1141       C  0.62678913  0.42051157  0.81427496    -0.20700
C1142       C  0.63385057  0.41946974  0.85574098    -0.07200
C1143       C  0.65975694  0.38979265  0.87056089     0.13600
C1144       C  0.67947794  0.36394156  0.84348861    -0.20700
C1145       C  0.67650886  0.36797958  0.80116301    -0.07200
C1146       C  0.64679005  0.39539737  0.78700955     0.13600
C1147       C  0.63252621  0.39899116  0.74415623    -0.24100
H1148       H  0.60531818  0.44172685  0.80255498     0.14900
H1149       H  0.69845219  0.34131393  0.85623977     0.14900
C1150       C  0.66648497  0.38479383  0.91495270    -0.24000
H1151       H  0.63801503  0.42953797  0.73314912     0.05200
H1152       H  0.59966172  0.39329784  0.74316673     0.08400
H1153       H  0.64601966  0.37830121  0.72273718     0.08400
H1154       H  0.63728132  0.37997512  0.93034164     0.08400
H1155       H  0.68124183  0.41157906  0.92733941     0.08400
H1156       H  0.68618572  0.35906338  0.92159915     0.05100
C1157       C  0.34418131  0.69525089  0.10203423    -0.20700
C1158       C  0.33885892  0.68545341  0.14317187    -0.07200
C1159       C  0.35993969  0.65072928  0.15712968     0.13600
C1160       C  0.38640092  0.63068748  0.13102133    -0.20700
C1161       C  0.39245989  0.64266692  0.09137926    -0.07200
C1162       C  0.36997374  0.67447026  0.07629784     0.13600
C1163       C  0.37432447  0.68792663  0.03330993    -0.24100
H1164       H  0.32894527  0.72014298  0.08902229     0.14900
H1165       H  0.40258138  0.60489614  0.14182122     0.14900
C1166       C  0.35617157  0.63133433  0.19795361    -0.24000
H1167       H  0.35610350  0.71475598  0.02691360     0.05200
H1168       H  0.36400222  0.66424657  0.01268016     0.08400
H1169       H  0.40623925  0.69509936  0.02686574     0.08400
H1170       H  0.33919395  0.64772924  0.22060971     0.08400
H1171       H  0.38645819  0.62615486  0.21086152     0.08400
H1172       H  0.34197072  0.60179903  0.19442443     0.05100
C1173       C  0.43398973  0.39149121  0.83718034    -0.20700
C1174       C  0.41287458  0.41585557  0.86375257    -0.07200
C1175       C  0.37075241  0.41296193  0.86528471     0.13600
C1176       C  0.35123513  0.38642179  0.83987552    -0.20700
C1177       C  0.37131223  0.36094779  0.81279244    -0.07200
C1178       C  0.41456940  0.36490546  0.81087614     0.13600
C1179       C  0.44202018  0.34737801  0.77925340    -0.24100
H1180       H  0.46634644  0.39495686  0.83563759     0.14900
H1181       H  0.31910089  0.38798664  0.83947641     0.14900
C1182       C  0.34532085  0.43904081  0.89202337    -0.24000
H1183       H  0.44022736  0.31516812  0.77710976     0.05200
H1184       H  0.47422944  0.35314192  0.78569186     0.08400
H1185       H  0.43658316  0.36173304  0.75007564     0.08400
H1186       H  0.35081512  0.47068360  0.88485917     0.08400
H1187       H  0.35241624  0.43305662  0.92397932     0.08400
H1188       H  0.31267204  0.43348401  0.88809810     0.05100
C1189       C  0.29862649  0.39339947  0.69598454    -0.20700
C1190       C  0.25754990  0.38151143  0.69844504    -0.07200
C1191       C  0.24408844  0.38424657  0.73922164     0.13600
C1192       C  0.27119457  0.37346021  0.77067554    -0.20700
C1193       C  0.31277407  0.36574386  0.76292904    -0.07200
C1194       C  0.32453986  0.39050260  0.72994792     0.13600
C1195       C  0.35898874  0.41948936  0.73232758    -0.24100
H1196       H  0.31044064  0.40776694  0.66980577     0.14900
H1197       H  0.25815774  0.37140541  0.79976980     0.14900
C1198       C  0.20088422  0.39237610  0.74956037    -0.24000
H1199       H  0.34657733  0.44999243  0.73335664     0.05200
H1200       H  0.37845041  0.41752435  0.70529951     0.08400
H1201       H  0.37754969  0.41546228  0.75936516     0.08400
H1202       H  0.18267816  0.39814791  0.72234763     0.08400
H1203       H  0.19920987  0.41893759  0.76911834     0.08400
H1204       H  0.18785770  0.36685189  0.76602584     0.05100
C1205       C  0.16429067  0.36233498  0.62981276    -0.20700
C1206       C  0.20030230  0.38001977  0.64342346    -0.07200
C1207       C  0.20599855  0.42071797  0.63123081     0.13600
C1208       C  0.17572464  0.44102977  0.60972822    -0.20700
C1209       C  0.14118310  0.42206922  0.59614255    -0.07200
C1210       C  0.13554228  0.38206072  0.60616712     0.13600
C1211       C  0.09871767  0.35988434  0.59246219    -0.24100
H1212       H  0.15831082  0.33204833  0.63575847     0.14900
H1213       H  0.17985913  0.47188153  0.60166571     0.14900
C1214       C  0.24404933  0.44386117  0.63760721    -0.24000
H1215       H  0.09785323  0.32922610  0.60447132     0.05200
H1216       H  0.09851366  0.35780544  0.55923159     0.08400
H1217       H  0.07122773  0.37549052  0.60287459     0.08400
H1218       H  0.26933513  0.42786640  0.62342626     0.08400
H1219       H  0.24870610  0.45015172  0.66985859     0.08400
H1220       H  0.24321831  0.47337552  0.62290874     0.05100
C1221       C  0.28159579  0.31563856  0.83916874    -0.20700
C1222       C  0.31769301  0.30601767  0.81849092    -0.07200
C1223       C  0.32708993  0.26647914  0.82883713     0.13600
C1224       C  0.29587198  0.23745880  0.82615085    -0.20700
C1225       C  0.25485022  0.24821826  0.82310607    -0.07200
C1226       C  0.24953046  0.28724959  0.84154942     0.13600
C1227       C  0.21136721  0.30141411  0.86084545    -0.24100
H1228       H  0.27693205  0.34439514  0.85211208     0.14900
H1229       H  0.30116134  0.20972733  0.84122245     0.14900
C1230       C  0.35270886  0.26183816  0.86607952    -0.24000
H1231       H  0.21637942  0.32877489  0.87865428     0.05200
H1232       H  0.20025196  0.27896708  0.88246763     0.08400
H1233       H  0.18905743  0.30950482  0.83759100     0.08400
H1234       H  0.37549470  0.28570146  0.86861527     0.08400
H1235       H  0.36770677  0.23247298  0.86674566     0.08400
H1236       H  0.33334417  0.26419017  0.89318300     0.05100
C1237       C  0.23974482  0.29409019  0.75627636    -0.20700
C1238       C  0.20890471  0.26902251  0.76472880    -0.07200
C1239       C  0.17457856  0.27590866  0.73906252     0.13600
C1240       C  0.17763550  0.30625972  0.70786987    -0.20700
C1241       C  0.21692905  0.31973485  0.69495881    -0.07200
C1242       C  0.24722712  0.30330709  0.71821155     0.13600
C1243       C  0.28829234  0.29612990  0.70555306    -0.24100
H1244       H  0.26649440  0.29257616  0.77182183     0.14900
H1245       H  0.15019550  0.31739899  0.69520878     0.14900
C1246       C  0.13622642  0.25316869  0.74398606    -0.24000
H1247       H  0.30489693  0.32215553  0.69814626     0.05200
H1248       H  0.30523998  0.27678572  0.72599171     0.08400
H1249       H  0.28324409  0.27935040  0.68019320     0.08400
H1250       H  0.12295863  0.25926479  0.77387913     0.08400
H1251       H  0.14201251  0.22098809  0.74067064     0.08400
H1252       H  0.11389520  0.26187635  0.72088470     0.05100
C1253       C  0.16697006  0.22091363  0.83312789    -0.20700
C1254       C  0.19285393  0.20341088  0.80479444    -0.07200
C1255       C  0.18586632  0.16195940  0.79749530     0.13600
C1256       C  0.16040478  0.14018330  0.82362385    -0.20700
C1257       C  0.13911973  0.15800537  0.85525855    -0.07200
C1258       C  0.14210803  0.19949791  0.85939163     0.13600
C1259       C  0.11856265  0.22220614  0.89058149    -0.24100
H1260       H  0.16417577  0.25221749  0.83332231     0.14900
H1261       H  0.15618663  0.10875252  0.81858343     0.14900
C1262       C  0.19927413  0.14027920  0.76019118    -0.24000
H1263       H  0.12385445  0.25462045  0.88855211     0.05200
H1264       H  0.12796037  0.21281053  0.92107894     0.08400
H1265       H  0.08588969  0.21706981  0.88650023     0.08400
H1266       H  0.23197258  0.13655427  0.75873640     0.08400
H1267       H  0.18774219  0.15568038  0.73327678     0.08400
H1268       H  0.18685997  0.10979195  0.75875326     0.05100
C1269       C  0.38357101  0.24400360  0.71942547    -0.20700
C1270       C  0.37148752  0.25965820  0.68223352    -0.07200
C1271       C  0.38251405  0.30047157  0.68093784     0.13600
C1272       C  0.37550576  0.32361790  0.71555580    -0.20700
C1273       C  0.36618674  0.30750013  0.75362946    -0.07200
C1274       C  0.38049261  0.26687375  0.75547359     0.13600
C1275       C  0.40347060  0.24974595  0.79004941    -0.24100
H1276       H  0.39637725  0.21458767  0.72022647     0.14900
H1277       H  0.38416014  0.35365713  0.71339438     0.14900
C1278       C  0.42193144  0.31220155  0.66126287    -0.24000
H1279       H  0.40802115  0.27163658  0.81405368     0.05200
H1280       H  0.38858387  0.22240255  0.80093110     0.08400
H1281       H  0.43412262  0.24126016  0.77990761     0.08400
H1282       H  0.41656703  0.32958756  0.63375447     0.08400
H1283       H  0.44085701  0.28585364  0.65515297     0.08400
H1284       H  0.44091467  0.33111749  0.68092687     0.05100
C1285       C  0.27876852  0.26270333  0.60787999    -0.20700
C1286       C  0.31849722  0.26794674  0.62117390    -0.07200
C1287       C  0.32869383  0.30899747  0.61472080     0.13600
C1288       C  0.30046293  0.33891279  0.62600721    -0.20700
C1289       C  0.25953198  0.33012614  0.63297760    -0.07200
C1290       C  0.24851717  0.29222880  0.61533607     0.13600
C1291       C  0.20640258  0.28149318  0.60392328    -0.24100
H1292       H  0.27129333  0.23560220  0.59287631     0.14900
H1293       H  0.30861364  0.36929421  0.62104182     0.14900
C1294       C  0.34853446  0.31956673  0.57504145    -0.24000
H1295       H  0.20539195  0.25369838  0.58616609     0.05200
H1296       H  0.19368261  0.30471238  0.58417807     0.08400
H1297       H  0.18815188  0.27596515  0.63108390     0.08400
H1298       H  0.34931970  0.29362218  0.55460817     0.08400
H1299       H  0.37918723  0.33129880  0.57946132     0.08400
H1300       H  0.33154239  0.34269215  0.55838053     0.05100
C1301       C  0.31773493  0.19424026  0.71904976    -0.20700
C1302       C  0.30721709  0.21368104  0.68256540    -0.07200
C1303       C  0.26501363  0.20888020  0.67637622     0.13600
C1304       C  0.23847361  0.21239814  0.70970710    -0.20700
C1305       C  0.25227677  0.21026050  0.75021433    -0.07200
C1306       C  0.29090040  0.19162807  0.75237275     0.13600
C1307       C  0.30119687  0.16124573  0.78380436    -0.24100
H1308       H  0.34574705  0.17834806  0.72090525     0.14900
H1309       H  0.20671664  0.21482439  0.70366426     0.14900
C1310       C  0.24935329  0.18434733  0.64213736    -0.24000
H1311       H  0.33058871  0.16824394  0.79781468     0.05200
H1312       H  0.30423930  0.13177247  0.76930671     0.08400
H1313       H  0.27732752  0.15868582  0.80695889     0.08400
H1314       H  0.23827067  0.15560570  0.65398191     0.08400
H1315       H  0.27308937  0.17713380  0.61994938     0.08400
H1316       H  0.22369139  0.19938214  0.62747139     0.05100
C1317       C  0.41151951  0.17989964  0.57620717    -0.20700
C1318       C  0.40162190  0.14071603  0.58272542    -0.07200
C1319       C  0.37302273  0.13137376  0.61207294     0.13600
C1320       C  0.35393111  0.16208556  0.63350760    -0.20700
C1321       C  0.36321425  0.20312240  0.62789528    -0.07200
C1322       C  0.39395474  0.21067169  0.59838953     0.13600
C1323       C  0.41117803  0.24991438  0.58856426    -0.24100
H1324       H  0.43427512  0.18660754  0.55380383     0.14900
H1325       H  0.33162805  0.15242042  0.65466278     0.14900
C1326       C  0.36287531  0.08877114  0.62099300    -0.24000
H1327       H  0.40727328  0.25649983  0.55616699     0.05200
H1328       H  0.44380539  0.25024963  0.59551825     0.08400
H1329       H  0.39636160  0.27218843  0.60592913     0.08400
H1330       H  0.39040228  0.07274505  0.63053736     0.08400
H1331       H  0.35058306  0.07440686  0.59367634     0.08400
H1332       H  0.34026046  0.08606941  0.64538260     0.05100
C1333       C  0.16572007  0.44378836  0.33820959    -0.20700
C1334       C  0.13805082  0.42205428  0.36055921    -0.07200
C1335       C  0.13771083  0.38053040  0.35670557     0.13600
C1336       C  0.16551897  0.36202747  0.33100882    -0.20700
C1337       C  0.19469304  0.38313207  0.30870333    -0.07200
C1338       C  0.19453561  0.42569043  0.31330174     0.13600
C1339       C  0.22432440  0.45403852  0.29453863    -0.24100
H1340       H  0.16542421  0.47576668  0.34130504     0.14900
H1341       H  0.16400691  0.33035551  0.32862516     0.14900
C1342       C  0.10742859  0.35536084  0.37865723    -0.24000
H1343       H  0.21934029  0.48519834  0.30404771     0.05200
H1344       H  0.22148101  0.45444998  0.26148590     0.08400
H1345       H  0.25515304  0.44686626  0.30424291     0.08400
H1346       H  0.07651779  0.36514339  0.37098092     0.08400
H1347       H  0.11217171  0.35780200  0.41151168     0.08400
H1348       H  0.11014378  0.32355869  0.37055732     0.05100
C1349       C  0.22650468  0.30164854  0.19283374    -0.20700
C1350       C  0.19505761  0.27695705  0.18630784    -0.07200
C1351       C  0.16221585  0.28418725  0.21443678     0.13600
C1352       C  0.16829284  0.31302419  0.24664433    -0.20700
C1353       C  0.20849090  0.32549433  0.25607362    -0.07200
C1354       C  0.23678136  0.30927681  0.23041075     0.13600
C1355       C  0.27813384  0.30034620  0.24031979    -0.24100
H1356       H  0.25203981  0.30112698  0.17508069     0.14900
H1357       H  0.14289687  0.32330463  0.26396433     0.14900
C1358       C  0.12145863  0.26549985  0.21086656    -0.24000
H1359       H  0.29641713  0.32428562  0.25076000     0.05200
H1360       H  0.27289238  0.28134380  0.26385480     0.08400
H1361       H  0.29382709  0.28302052  0.21714167     0.08400
H1362       H  0.12026005  0.24243194  0.18753021     0.08400
H1363       H  0.09893743  0.28866080  0.20364502     0.08400
H1364       H  0.11287228  0.25163384  0.23981944     0.05100
C1365       C  0.18418795  0.17087794  0.14547313    -0.20700
C1366       C  0.17905598  0.21250758  0.14254906    -0.07200
C1367       C  0.14862232  0.22617125  0.11537296     0.13600
C1368       C  0.12744484  0.19889135  0.09155428    -0.20700
C1369       C  0.13369216  0.15799374  0.09418851    -0.07200
C1370       C  0.16198393  0.14380538  0.12219997     0.13600
C1371       C  0.17057869  0.10015809  0.12639488    -0.24100
H1372       H  0.20694358  0.15867494  0.16491669     0.14900
H1373       H  0.10492566  0.20995400  0.07088135     0.14900
C1374       C  0.13537166  0.26864515  0.11026695    -0.24000
H1375       H  0.19535878  0.09430929  0.14787610     0.05200
H1376       H  0.17949733  0.08764224  0.09686745     0.08400
H1377       H  0.14351830  0.08459834  0.13775750     0.08400
H1378       H  0.14161803  0.27848012  0.07908395     0.08400
H1379       H  0.14892007  0.28976835  0.13117796     0.08400
H1380       H  0.10245129  0.27069245  0.11545715     0.05100
C1381       C  0.32118367  0.30913180  0.32885285    -0.20700
C1382       C  0.30951053  0.26920578  0.32166607    -0.07200
C1383       C  0.26952000  0.26408912  0.33622159     0.13600
C1384       C  0.24053182  0.29451383  0.32932675    -0.20700
C1385       C  0.25271428  0.33318637  0.31655981    -0.07200
C1386       C  0.29297110  0.34105279  0.32789657     0.13600
C1387       C  0.30282148  0.37793704  0.35105444    -0.24100
H1388       H  0.35080045  0.31522394  0.34001336     0.14900
H1389       H  0.20933037  0.28623203  0.33091549     0.14900
C1390       C  0.25992197  0.23262776  0.36676414    -0.24000
H1391       H  0.33132700  0.39119380  0.34019954     0.05200
H1392       H  0.30690783  0.37009212  0.38315255     0.08400
H1393       H  0.27809111  0.39987599  0.34937282     0.08400
H1394       H  0.28440304  0.21055323  0.36914509     0.08400
H1395       H  0.23116514  0.21746071  0.35996160     0.08400
H1396       H  0.25636595  0.24692691  0.39656272     0.05100
C1397       C  0.25552776  0.21245532  0.26794690    -0.20700
C1398       C  0.29741733  0.21567347  0.26002914    -0.07200
C1399       C  0.30536663  0.19719466  0.22224868     0.13600
C1400       C  0.27759752  0.20173232  0.19002326    -0.20700
C1401       C  0.23847809  0.21735517  0.19581936    -0.07200
C1402       C  0.22625435  0.21235038  0.23673598     0.13600
C1403       C  0.18414025  0.20162698  0.24838032    -0.24100
H1404       H  0.24505811  0.20726555  0.29760282     0.14900
H1405       H  0.28426465  0.18647321  0.16268878     0.14900
C1406       C  0.33471029  0.16352952  0.21860677    -0.24000
H1407       H  0.17205615  0.22385548  0.26975195     0.05200
H1408       H  0.18437751  0.17238640  0.26362234     0.08400
H1409       H  0.16432046  0.19867252  0.22203768     0.08400
H1410       H  0.31767844  0.13539344  0.21593284     0.08400
H1411       H  0.35429779  0.16067276  0.24512792     0.08400
H1412       H  0.35293630  0.16667693  0.19096570     0.05100
C1413       C  0.41834885  0.18674445  0.34552752    -0.20700
C1414       C  0.40051189  0.15064186  0.35464124    -0.07200
C1415       C  0.36056708  0.14370980  0.34300055     0.13600
C1416       C  0.33940303  0.17335022  0.32245309    -0.20700
C1417       C  0.35704315  0.21001603  0.31147657    -0.07200
C1418       C  0.39743160  0.21695952  0.32536134     0.13600
C1419       C  0.42011064  0.25534801  0.32091258    -0.24100
H1420       H  0.44905565  0.19155282  0.35524180     0.14900
H1421       H  0.30851540  0.16714039  0.31489685     0.14900
C1422       C  0.34054267  0.10438975  0.35069502    -0.24000
H1423       H  0.44980863  0.25451624  0.33605650     0.05200
H1424       H  0.40354955  0.27949832  0.33558044     0.08400
H1425       H  0.42699787  0.26181812  0.28920988     0.08400
H1426       H  0.33791534  0.09909602  0.38343681     0.08400
H1427       H  0.35851473  0.08026962  0.33678220     0.08400
H1428       H  0.30983121  0.10320131  0.33775664     0.05100
C1429       C  0.36395107  0.27141994  0.18379202    -0.20700
C1430       C  0.35689132  0.31307849  0.18612822    -0.07200
C1431       C  0.37461915  0.32798957  0.22175593     0.13600
C1432       C  0.36870722  0.30588053  0.25760935    -0.20700
C1433       C  0.35790567  0.26494656  0.25600486    -0.07200
C1434       C  0.37061002  0.24863475  0.21893515     0.13600
C1435       C  0.40686021  0.22186061  0.21833049    -0.24100
H1436       H  0.37428055  0.25836748  0.15640530     0.14900
H1437       H  0.38054351  0.31863891  0.28453375     0.14900
C1438       C  0.41522756  0.34747101  0.21834502    -0.24000
H1439       H  0.43442742  0.24029099  0.21981542     0.05200
H1440       H  0.40839082  0.20452697  0.19008635     0.08400
H1441       H  0.40730422  0.20138438  0.24420294     0.08400
H1442       H  0.41762166  0.36642834  0.19140719     0.08400
H1443       H  0.43865148  0.32416807  0.21561885     0.08400
H1444       H  0.42215503  0.36521830  0.24548965     0.05100
C1445       C  0.29220154  0.39447518  0.25456067    -0.20700
C1446       C  0.25086026  0.38548569  0.25251944    -0.07200
C1447       C  0.23620105  0.39025640  0.21229946     0.13600
C1448       C  0.26171944  0.37919550  0.17969478    -0.20700
C1449       C  0.30274795  0.36886656  0.18567956    -0.07200
C1450       C  0.31735707  0.39041602  0.22017441     0.13600
C1451       C  0.35390294  0.41651676  0.21970445    -0.24100
H1452       H  0.30479450  0.40657073  0.28138780     0.14900
H1453       H  0.24785123  0.37712427  0.15116694     0.14900
C1454       C  0.19283717  0.39942087  0.20349155    -0.24000
H1455       H  0.34398901  0.44789631  0.22116212     0.05200
H1456       H  0.37215717  0.41350331  0.19239658     0.08400
H1457       H  0.37254441  0.41093176  0.24662084     0.08400
H1458       H  0.19114410  0.42661190  0.18487394     0.08400
H1459       H  0.17526770  0.40452051  0.23127807     0.08400
H1460       H  0.17890187  0.37465084  0.18661487     0.05100
C1461       C  0.30927712  0.27120907  0.11906493    -0.20700
C1462       C  0.30269577  0.31234878  0.12577286    -0.07200
C1463       C  0.26584858  0.32309643  0.10609244     0.13600
C1464       C  0.23258689  0.29583314  0.10733273    -0.20700
C1465       C  0.23773422  0.25675325  0.12391106    -0.07200
C1466       C  0.27708654  0.24374278  0.11607287     0.13600
C1467       C  0.28276631  0.20713467  0.09092902    -0.24100
H1468       H  0.33772071  0.26140776  0.10779623     0.14900
H1469       H  0.20343640  0.30715417  0.09968422     0.14900
C1470       C  0.26275517  0.35809916  0.07832017    -0.24000
H1471       H  0.31115937  0.19182761  0.09904703     0.05200
H1472       H  0.28432782  0.21565503  0.05879093     0.08400
H1473       H  0.25726891  0.18628537  0.09496344     0.08400
H1474       H  0.25638048  0.34711995  0.04757355     0.08400
H1475       H  0.29112257  0.37475084  0.07646965     0.08400
H1476       H  0.23776842  0.37813649  0.08690752     0.05100
C1477       C  0.41790158  0.38532031  0.09131175    -0.20700
C1478       C  0.40440348  0.42397950  0.08632354    -0.07200
C1479       C  0.36655871  0.43486135  0.10118847     0.13600
C1480       C  0.34336551  0.40680737  0.12156984    -0.20700
C1481       C  0.35698374  0.36762480  0.12946492    -0.07200
C1482       C  0.39478594  0.35666293  0.11157656     0.13600
C1483       C  0.41221471  0.31555789  0.11195078    -0.24100
H1484       H  0.44677150  0.37738911  0.07845794     0.14900
H1485       H  0.31407352  0.41644801  0.13143455     0.14900
C1486       C  0.35084046  0.47654236  0.09653070    -0.24000
H1487       H  0.44006424  0.31335491  0.09366117     0.05200
H1488       H  0.39101898  0.29467185  0.09816649     0.08400
H1489       H  0.42126610  0.30686883  0.14253022     0.08400
H1490       H  0.34706516  0.48367441  0.06426341     0.08400
H1491       H  0.37226602  0.49778798  0.11023801     0.08400
H1492       H  0.32124948  0.48058192  0.11145832     0.05100
loop_ 
_geom_bond_atom_site_label_1 
_geom_bond_atom_site_label_2 
_geom_bond_distance 
_geom_bond_site_symmetry_2 
_ccdc_geom_bond_type 
C1         C1430   1.629       .  S
C1         C1449   1.651       .  S
C1         C1462   1.647       .  S
C1         C1481   1.570       .  S
C2         C1382   1.647       .  S
C2         C1398   1.665       .  S
C2         C1417   1.563       .  S
C2         C1433   1.625       .  S
C3         C1350   1.587       .  S
C3         C1366   1.558       .  S
C3         C1401   1.638       .  S
C3         C1465   1.639       .  S
C4         C1337   1.567       .  S
C4         C1353   1.584       .  S
C4         C1385   1.615       .  S
C4         C1446   1.626       .  S
C5         C1270   1.635       .  S
C5         C1286   1.662       .  S
C5         C1302   1.664       .  S
C5         C1321   1.596       .  S
C6         C1225   1.656       .  S
C6         C1238   1.588       .  S
C6         C1254   1.582       .  S
C6         C1305   1.628       .  S
C7         C1190   1.644       .  S
C7         C1206   1.587       .  S
C7         C1241   1.600       .  S
C7         C1289   1.625       .  S
C8         C1177   1.567       .  S
C8         C1193   1.660       .  S
C8         C1222   1.643       .  S
C8         C1273   1.636       .  S
N9           N10   1.321       .  A
N9           N15   1.314       .  A
N9          Mn38   2.198       .  S
N10          C17   1.355       .  A
N11          N13   1.314       .  A
N11          N12   1.320       .  A
N11         Mn27   2.193       .  S
N12          C18   1.353       .  A
N13          N14   1.318       .  A
N13         Mn38   2.199       .  S
N14          C18   1.354       .  A
N15          N16   1.317       .  A
N15         Mn27   2.192       .  S
N16          C17   1.351       .  A
C17        C1174   1.483       .  S
C18        C1126   1.489       .  S
N19          N25   1.318       .  A
N19          N20   1.323       .  A
N19         Mn49   2.215       .  S
N20          C28   1.355       .  A
N21          N22   1.318       .  A
N21          N23   1.316       .  A
N21         Mn27   2.187   1_554  S
N22          C29   1.348       .  A
N23          N24   1.322       .  A
N23         Mn49   2.212       .  S
N24          C29   1.354       .  A
N25          N26   1.319       .  A
N25         Mn27   2.194   1_554  S
N26          C28   1.349       .  A
Mn27        Cl51   2.539       .  S
C28        C1161   1.480       .  S
C29        C1478   1.470       .  S
N30          N31   1.321       .  A
N30          N36   1.316       .  A
N30         Mn38   2.204       .  S
N31          C39   1.354       .  A
N32          N34   1.316       .  A
N32          N33   1.330       .  A
N32         Mn50   2.252       .  S
N33          C40   1.363       .  A
N34          N35   1.319       .  A
N34         Mn38   2.194       .  S
N35          C40   1.351       .  A
N36          N37   1.323       .  A
N36         Mn50   2.219       .  S
N37          C39   1.356       .  A
Mn38        Cl51   2.553       .  S
C39        C1094   1.488       .  S
C40        C1142   1.504       .  S
N41          N42   1.318       .  A
N41          N47   1.317       .  A
N41         Mn49   2.188       .  S
N42          C52   1.348       .  A
N43          N44   1.320       .  A
N43          N45   1.319       .  A
N43         Mn50   2.224   1_554  S
N44          C53   1.353       .  A
N45          N46   1.326       .  A
N45         Mn49   2.226       .  S
N46          C53   1.358       .  A
N47          N48   1.319       .  A
N47         Mn50   2.209   1_554  S
N48          C52   1.355       .  A
Mn49        Cl51   2.559   1_554  S
Mn50        Cl51   2.547       .  S
C52        C1078   1.480       .  S
C53        C1110   1.502       .  S
C54        C1030   1.634       .  S
C54        C1046   1.599       .  S
C54        C1062   1.607       .  S
C54        C1158   1.564       .  S
C55         C985   1.629       .  S
C55        C1001   1.628       .  S
C55        C1014   1.577       .  S
C55        C1065   1.614       .  S
C56         C950   1.624       .  S
C56         C969   1.562       .  S
C56         C982   1.589       .  S
C56        C1049   1.577       .  S
C57         C934   1.578       .  S
C57         C953   1.640       .  S
C57         C998   1.634       .  S
C57        C1033   1.623       .  S
N58          N59   1.321       .  A
N58          N64   1.316       .  A
N58         Mn87   2.207       .  S
N59          C66   1.351       .  A
N60          N62   1.316       .  A
N60          N61   1.321       .  A
N60         Mn76   2.201   1_565  S
N61          C67   1.353       .  A
N62          N63   1.315       .  A
N62         Mn87   2.194   1_565  S
N63          C67   1.352       .  A
N64          N65   1.322       .  A
N64         Mn76   2.199       .  S
N65          C66   1.351       .  A
C66        C1318   1.471       .  S
C67         C902   1.481       .  S
N68          N74   1.316       .  A
N68          N69   1.324       .  A
N68         Mn98   2.222   1_565  S
N69          C77   1.357       .  A
N70          N71   1.320       .  A
N70          N72   1.318       .  A
N70         Mn76   2.201       .  S
N71          C78   1.351       .  A
N72          N73   1.321       .  A
N72         Mn98   2.214       .  S
N73          C78   1.353       .  A
N74          N75   1.318       .  A
N74         Mn76   2.186   1_565  S
N75          C77   1.348       .  A
Mn76       Cl100   2.551       .  S
C77         C937   1.482       .  S
C78        C1414   1.475       .  S
N79          N80   1.322       .  A
N79          N85   1.314       .  A
N79         Mn87   2.210   1_565  S
N80          C88   1.357       .  A
N81          N83   1.316       .  A
N81          N82   1.321       .  A
N81         Mn99   2.216       .  S
N82          C89   1.355       .  A
N83          N84   1.322       .  A
N83         Mn87   2.209       .  S
N84          C89   1.356       .  A
N85          N86   1.322       .  A
N85         Mn99   2.209   1_565  S
N86          C88   1.355       .  A
Mn87       Cl100   2.547       .  S
C88         C873   1.501       .  S
C89         C921   1.492       .  S
N90          N91   1.324       .  A
N90          N96   1.317       .  A
N90         Mn98   2.223       .  S
N91         C101   1.355       .  A
N92          N93   1.320       .  A
N92          N94   1.318       .  A
N92         Mn99   2.211   1_565  S
N93         C102   1.352       .  A
N94          N95   1.323       .  A
N94         Mn98   2.217   1_565  S
N95         C102   1.354       .  A
N96          N97   1.322       .  A
N96         Mn99   2.203       .  S
N97         C101   1.351       .  A
Mn98       Cl100   2.553       .  S
Mn99       Cl100   2.548       .  S
C101        C857   1.482       .  S
C102        C886   1.476       .  S
C103        C806   1.594       .  S
C103        C825   1.633       .  S
C103        C838   1.645       .  S
C103       C1145   1.568       .  S
C104        C758   1.634       .  S
C104        C774   1.652       .  S
C104        C790   1.571       .  S
C104        C841   1.650       .  S
C105        C742   1.593       .  S
C105        C761   1.641       .  S
C105        C809   1.577       .  S
C105        C918   1.589       .  S
C106        C726   1.582       .  S
C106        C745   1.621       .  S
C106        C777   1.623       .  S
C106        C822   1.666       .  S
C107        C678   1.636       .  S
C107        C694   1.647       .  S
C107        C710   1.626       .  S
C107       C1129   1.572       .  S
C108        C646   1.660       .  S
C108        C665   1.644       .  S
C108        C713   1.637       .  S
C108        C905   1.572       .  S
C109        C614   1.574       .  S
C109        C633   1.573       .  S
C109        C649   1.639       .  S
C109        C681   1.604       .  S
C110        C598   1.560       .  S
C110        C617   1.590       .  S
C110        C662   1.638       .  S
C110        C697   1.621       .  S
C111        C550   1.594       .  S
C111        C566   1.613       .  S
C111        C582   1.626       .  S
C111        C889   1.560       .  S
C112        C505   1.652       .  S
C112        C518   1.638       .  S
C112        C537   1.589       .  S
C112        C585   1.637       .  S
C113        C486   1.597       .  S
C113        C502   1.628       .  S
C113        C553   1.560       .  S
C113       C1113   1.580       .  S
C114        C470   1.579       .  S
C114        C489   1.618       .  S
C114        C521   1.633       .  S
C114        C569   1.630       .  S
C115        C422   1.618       .  S
C115        C438   1.598       .  S
C115        C454   1.648       .  S
C115       C1097   1.589       .  S
C116        C374   1.638       .  S
C116        C393   1.611       .  S
C116        C406   1.571       .  S
C116        C441   1.609       .  S
C117        C358   1.626       .  S
C117        C377   1.596       .  S
C117        C425   1.571       .  S
C117        C870   1.564       .  S
C118        C342   1.586       .  S
C118        C361   1.629       .  S
C118        C390   1.629       .  S
C118        C457   1.648       .  S
N119        N120   1.324       .  A
N119        N125   1.318       .  A
N119       Mn148   2.219       .  S
N120        C127   1.355       .  A
N121        N123   1.317       .  A
N121        N122   1.320       .  A
N121       Mn137   2.215   1_654  S
N122        C128   1.355       .  A
N123        N124   1.319       .  A
N123       Mn148   2.185   1_655  S
N124        C128   1.349       .  A
N125        N126   1.322       .  A
N125       Mn137   2.210   1_554  S
N126        C127   1.354       .  A
C127       C1369   1.495       .  S
C128        C326   1.478       .  S
N129        N135   1.315       .  A
N129        N130   1.317       .  A
N129       Mn159   2.199   1_655  S
N130        C138   1.354       .  A
N131        N132   1.323       .  A
N131        N133   1.319       .  A
N131       Mn137   2.227       .  S
N132        C139   1.356       .  A
N133        N134   1.324       .  A
N133       Mn159   2.227       .  S
N134        C139   1.357       .  A
N135        N136   1.324       .  A
N135       Mn137   2.206   1_655  S
N136        C138   1.355       .  A
Mn137      Cl161   2.550       .  S
C138        C729   1.492       .  S
C139       C1257   1.504       .  S
N140        N141   1.325       .  A
N140        N146   1.315       .  A
N140       Mn148   2.226   1_665  S
N141        C149   1.357       .  A
N142        N144   1.316       .  A
N142        N143   1.319       .  A
N142       Mn160   2.206   1_554  S
N143        C150   1.355       .  A
N144        N145   1.321       .  A
N144       Mn148   2.202   1_565  S
N145        C150   1.353       .  A
N146        N147   1.320       .  A
N146       Mn160   2.193   1_654  S
N147        C149   1.351       .  A
Mn148      Cl161   2.554   1_554  S
C149        C473   1.484       .  S
C150       C1017   1.485       .  S
N151        N152   1.324       .  A
N151        N157   1.315       .  A
N151       Mn159   2.213   1_565  S
N152        C162   1.357       .  A
N153        N154   1.323       .  A
N153        N155   1.316       .  A
N153       Mn160   2.210   1_655  S
N154        C163   1.354       .  A
N155        N156   1.322       .  A
N155       Mn159   2.224   1_665  S
N156        C163   1.357       .  A
N157        N158   1.318       .  A
N157       Mn160   2.197       .  S
N158        C162   1.352       .  A
Mn159      Cl161   2.553       .  S
Mn160      Cl161   2.543   1_565  S
C162        C601   1.494       .  S
C163        C345   1.485       .  S
C164        C278   1.644       .  S
C164        C294   1.688       .  S
C164        C310   1.635       .  S
C164        C854   1.578       .  S
C165        C246   1.658       .  S
C165        C265   1.675       .  S
C165        C313   1.627       .  S
C165        C329   1.563       .  S
C166        C233   1.680       .  S
C166        C249   1.646       .  S
C166        C281   1.679       .  S
C166       C1081   1.574       .  S
C167        C217   1.583       .  S
C167        C230   1.687       .  S
C167        C262   1.679       .  S
C167        C297   1.673       .  S
N168        N169   1.319       .  A
N168        N174   1.317       .  A
N168       Mn197   2.199       .  S
N169        C176   1.352       .  A
N170        N172   1.318       .  A
N170        N171   1.323       .  A
N170       Mn186   2.219   1_655  S
N171        C177   1.355       .  A
N172        N173   1.319       .  A
N172       Mn197   2.201   1_655  S
N173        C177   1.351       .  A
N174        N175   1.322       .  A
N174       Mn186   2.211       .  S
N175        C176   1.354       .  A
C176       C1334   1.485       .  S
C177        C214   1.481       .  S
N178        N184   1.316       .  A
N178        N179   1.320       .  A
N178       Mn208   2.206   1_655  S
N179        C187   1.353       .  A
N180        N181   1.323       .  A
N180        N182   1.318       .  A
N180       Mn186   2.227       .  S
N181        C188   1.356       .  A
N182        N183   1.323       .  A
N182       Mn208   2.215       .  S
N183        C188   1.354       .  A
N184        N185   1.322       .  A
N184       Mn186   2.212   1_655  S
N185        C187   1.355       .  A
Mn186      Cl210   2.554       .  S
C187        C793   1.488       .  S
C188       C1209   1.490       .  S
N189        N190   1.324       .  A
N189        N195   1.315       .  A
N189       Mn197   2.214   1_655  S
N190        C198   1.356       .  A
N191        N193   1.316       .  A
N191        N192   1.320       .  A
N191       Mn209   2.203       .  S
N192        C199   1.352       .  A
N193        N194   1.324       .  A
N193       Mn197   2.217       .  S
N194        C199   1.355       .  A
N195        N196   1.319       .  A
N195       Mn209   2.199   1_655  S
N196        C198   1.354       .  A
Mn197      Cl210   2.549       .  S
C198        C534   1.493       .  S
C199        C966   1.480       .  S
N200        N201   1.321       .  A
N200        N206   1.315       .  A
N200       Mn208   2.201       .  S
N201        C211   1.353       .  A
N202        N203   1.321       .  A
N202        N204   1.317       .  A
N202       Mn209   2.201   1_655  S
N203        C212   1.351       .  A
N204        N205   1.322       .  A
N204       Mn208   2.220   1_655  S
N205        C212   1.355       .  A
N206        N207   1.319       .  A
N206       Mn209   2.199       .  S
N207        C211   1.353       .  A
Mn208      Cl210   2.553       .  S
Mn209      Cl210   2.546       .  S
C211        C630   1.481       .  S
C212        C409   1.478       .  S
C213        C214   1.394       .  A
C213        C218   1.410       .  A
C213        H220   1.085       .  S
C214        C215   1.399       .  A
C215        C222   1.510       .  S
C215        C216   1.404       .  A
C216        C217   1.427       .  A
C216        H221   1.068       .  S
C217        C218   1.444       .  A
C218        C219   1.513       .  S
C219        H223   1.111       .  S
C219        H224   1.091       .  S
C219        H225   1.105       .  S
C222        H226   1.110       .  S
C222        H227   1.110       .  S
C222        H228   1.111       .  S
C229        C230   1.427       .  A
C229        C234   1.455       .  A
C229        H236   1.079       .  S
C230        C231   1.446       .  A
C231        C238   1.507       .  S
C231        C232   1.451       .  A
C232        C233   1.424       .  A
C232        H237   1.081       .  S
C233        C234   1.455       .  A
C234        C235   1.509       .  S
C235        H239   1.110       .  S
C235        H240   1.103       .  S
C235        H241   1.110       .  S
C238        H242   1.108       .  S
C238        H243   1.109       .  S
C238        H244   1.111       .  S
C245        C246   1.417       .  A
C245        C250   1.422       .  A
C245        H252   1.068       .  S
C246        C247   1.429       .  A
C247        C254   1.508       .  S
C247        C248   1.437       .  A
C248        C249   1.446       .  A
C248        H253   1.065       .  S
C249        C250   1.427       .  A
C250        C251   1.498       .  S
C251        H255   1.111       .  S
C251        H256   1.104       .  S
C251        H257   1.108       .  S
C254        H258   1.110       .  S
C254        H259   1.110       .  S
C254        H260   1.110       .  S
C261        C262   1.407       .  A
C261        C266   1.400       .  A
C261        H268   1.064       .  S
C262        C263   1.467       .  A
C263        C270   1.504       .  S
C263        C264   1.488       .  A
C264        C265   1.460       .  A
C264        H269   1.078       .  S
C265        C266   1.388       .  A
C266        C267   1.433       .  S
C267        H271   1.049       .  S
C267        H272   1.053       .  S
C267        H273   1.089       .  S
C270        H274   1.107       .  S
C270        H275   1.110       .  S
C270        H276   1.108       .  S
C277        C278   1.450       .  A
C277        C282   1.484       .  A
C277        H284   1.082       .  S
C278        C279   1.389       .  A
C279        C286   1.419       .  S
C279        C280   1.400       .  A
C280        C281   1.402       .  A
C280        H285   1.085       .  S
C281        C282   1.465       .  A
C282        C283   1.504       .  S
C283        H287   1.109       .  S
C283        H288   1.110       .  S
C283        H289   1.111       .  S
C286        H290   1.058       .  S
C286        H291   1.090       .  S
C286        H292   1.040       .  S
C293        C294   1.424       .  A
C293        C298   1.445       .  A
C293        H300   1.077       .  S
C294        C295   1.439       .  A
C295        C302   1.496       .  S
C295        C296   1.446       .  A
C296        C297   1.446       .  A
C296        H301   1.070       .  S
C297        C298   1.433       .  A
C298        C299   1.496       .  S
C299        H303   1.111       .  S
C299        H304   1.102       .  S
C299        H305   1.106       .  S
C302        H306   1.106       .  S
C302        H307   1.110       .  S
C302        H308   1.111       .  S
C309        C310   1.417       .  A
C309        C314   1.426       .  A
C309        H316   1.077       .  S
C310        C311   1.434       .  A
C311        C318   1.510       .  S
C311        C312   1.414       .  A
C312        C313   1.412       .  A
C312        H317   1.073       .  S
C313        C314   1.429       .  A
C314        C315   1.505       .  S
C315        H319   1.110       .  S
C315        H320   1.109       .  S
C315        H321   1.111       .  S
C318        H322   1.106       .  S
C318        H323   1.111       .  S
C318        H324   1.111       .  S
C325        C326   1.390       .  A
C325        C330   1.403       .  A
C325        H332   1.085       .  S
C326        C327   1.409       .  A
C327        C334   1.508       .  S
C327        C328   1.404       .  A
C328        C329   1.412       .  A
C328        H333   1.072       .  S
C329        C330   1.447       .  A
C330        C331   1.515       .  S
C331        H335   1.111       .  S
C331        H336   1.103       .  S
C331        H337   1.104       .  S
C334        H338   1.110       .  S
C334        H339   1.110       .  S
C334        H340   1.111       .  S
C341        C342   1.427       .  A
C341        C346   1.412       .  A
C341        H348   1.074       .  S
C342        C343   1.447       .  A
C343        C350   1.506       .  S
C343        C344   1.408       .  A
C344        C345   1.388       .  A
C344        H349   1.085       .  S
C345        C346   1.403       .  A
C346        C347   1.507       .  S
C347        H351   1.111       .  S
C347        H352   1.111       .  S
C347        H353   1.110       .  S
C350        H354   1.097       .  S
C350        H355   1.104       .  S
C350        H356   1.111       .  S
C357        C358   1.426       .  A
C357        C362   1.428       .  A
C357        H364   1.074       .  S
C358        C359   1.419       .  A
C359        C366   1.504       .  S
C359        C360   1.427       .  A
C360        C361   1.419       .  A
C360        H365   1.073       .  S
C361        C362   1.428       .  A
C362        C363   1.504       .  S
C363        H367   1.111       .  S
C363        H368   1.105       .  S
C363        H369   1.111       .  S
C366        H370   1.111       .  S
C366        H371   1.110       .  S
C366        H372   1.110       .  S
C373        C374   1.416       .  A
C373        C378   1.415       .  A
C373        H380   1.072       .  S
C374        C375   1.411       .  A
C375        C382   1.507       .  S
C375        C376   1.417       .  A
C376        C377   1.416       .  A
C376        H381   1.067       .  S
C377        C378   1.432       .  A
C378        C379   1.503       .  S
C379        H383   1.110       .  S
C379        H384   1.110       .  S
C379        H385   1.103       .  S
C382        H386   1.109       .  S
C382        H387   1.110       .  S
C382        H388   1.111       .  S
C389        C390   1.430       .  A
C389        C394   1.415       .  A
C389        H396   1.067       .  S
C390        C391   1.410       .  A
C391        C398   1.503       .  S
C391        C392   1.408       .  A
C392        C393   1.427       .  A
C392        H397   1.066       .  S
C393        C394   1.422       .  A
C394        C395   1.503       .  S
C395        H399   1.110       .  S
C395        H400   1.107       .  S
C395        H401   1.106       .  S
C398        H402   1.108       .  S
C398        H403   1.108       .  S
C398        H404   1.111       .  S
C405        C406   1.422       .  A
C405        C410   1.405       .  A
C405        H412   1.076       .  S
C406        C407   1.444       .  A
C407        C414   1.508       .  S
C407        C408   1.408       .  A
C408        C409   1.391       .  A
C408        H413   1.085       .  S
C409        C410   1.402       .  A
C410        C411   1.507       .  S
C411        H415   1.111       .  S
C411        H416   1.110       .  S
C411        H417   1.110       .  S
C414        H418   1.100       .  S
C414        H419   1.105       .  S
C414        H420   1.111       .  S
C421        C422   1.373       .  A
C421        C426   1.349       .  A
C421        H428   1.089       .  S
C422        C423   1.458       .  A
C423        C430   1.495       .  S
C423        C424   1.473       .  A
C424        C425   1.453       .  A
C424        H429   1.081       .  S
C425        C426   1.378       .  A
C426        C427   1.473       .  S
C427        H431   1.090       .  S
C427        H432   1.075       .  S
C427        H433   1.086       .  S
C430        H434   1.110       .  S
C430        H435   1.107       .  S
C430        H436   1.109       .  S
C437        C438   1.423       .  A
C437        C442   1.395       .  A
C437        H444   1.065       .  S
C438        C439   1.439       .  A
C439        C446   1.504       .  S
C439        C440   1.432       .  A
C440        C441   1.413       .  A
C440        H445   1.079       .  S
C441        C442   1.398       .  A
C442        C443   1.507       .  S
C443        H447   1.110       .  S
C443        H448   1.110       .  S
C443        H449   1.111       .  S
C446        H450   1.110       .  S
C446        H451   1.106       .  S
C446        H452   1.110       .  S
C453        C454   1.414       .  A
C453        C458   1.420       .  A
C453        H460   1.069       .  S
C454        C455   1.450       .  A
C455        C462   1.511       .  S
C455        C456   1.437       .  A
C456        C457   1.422       .  A
C456        H461   1.063       .  S
C457        C458   1.421       .  A
C458        C459   1.504       .  S
C459        H463   1.109       .  S
C459        H464   1.111       .  S
C459        H465   1.107       .  S
C462        H466   1.109       .  S
C462        H467   1.108       .  S
C462        H468   1.111       .  S
C469        C470   1.427       .  A
C469        C474   1.408       .  A
C469        H476   1.078       .  S
C470        C471   1.440       .  A
C471        C478   1.505       .  S
C471        C472   1.411       .  A
C472        C473   1.394       .  A
C472        H477   1.085       .  S
C473        C474   1.402       .  A
C474        C475   1.507       .  S
C475        H479   1.111       .  S
C475        H480   1.110       .  S
C475        H481   1.110       .  S
C478        H482   1.099       .  S
C478        H483   1.105       .  S
C478        H484   1.111       .  S
C485        C486   1.422       .  A
C485        C490   1.417       .  A
C485        H492   1.082       .  S
C486        C487   1.423       .  A
C487        C494   1.497       .  S
C487        C488   1.418       .  A
C488        C489   1.408       .  A
C488        H493   1.077       .  S
C489        C490   1.419       .  A
C490        C491   1.504       .  S
C491        H495   1.110       .  S
C491        H496   1.109       .  S
C491        H497   1.110       .  S
C494        H498   1.104       .  S
C494        H499   1.111       .  S
C494        H500   1.108       .  S
C501        C502   1.428       .  A
C501        C506   1.435       .  A
C501        H508   1.073       .  S
C502        C503   1.410       .  A
C503        C510   1.509       .  S
C503        C504   1.426       .  A
C504        C505   1.430       .  A
C504        H509   1.070       .  S
C505        C506   1.441       .  A
C506        C507   1.493       .  S
C507        H511   1.099       .  S
C507        H512   1.109       .  S
C507        H513   1.111       .  S
C510        H514   1.110       .  S
C510        H515   1.109       .  S
C510        H516   1.111       .  S
C517        C518   1.423       .  A
C517        C522   1.419       .  A
C517        H524   1.069       .  S
C518        C519   1.413       .  A
C519        C526   1.507       .  S
C519        C520   1.421       .  A
C520        C521   1.435       .  A
C520        H525   1.069       .  S
C521        C522   1.420       .  A
C522        C523   1.503       .  S
C523        H527   1.111       .  S
C523        H528   1.107       .  S
C523        H529   1.104       .  S
C526        H530   1.110       .  S
C526        H531   1.110       .  S
C526        H532   1.111       .  S
C533        C534   1.393       .  A
C533        C538   1.407       .  A
C533        H540   1.084       .  S
C534        C535   1.406       .  A
C535        C542   1.508       .  S
C535        C536   1.410       .  A
C536        C537   1.429       .  A
C536        H541   1.074       .  S
C537        C538   1.441       .  A
C538        C539   1.501       .  S
C539        H543   1.111       .  S
C539        H544   1.105       .  S
C539        H545   1.093       .  S
C542        H546   1.111       .  S
C542        H547   1.109       .  S
C542        H548   1.111       .  S
C549        C550   1.368       .  A
C549        C554   1.348       .  A
C549        H556   1.087       .  S
C550        C551   1.458       .  A
C551        C558   1.503       .  S
C551        C552   1.461       .  A
C552        C553   1.438       .  A
C552        H557   1.082       .  S
C553        C554   1.384       .  A
C554        C555   1.466       .  S
C555        H559   1.064       .  S
C555        H560   1.086       .  S
C555        H561   1.099       .  S
C558        H562   1.103       .  S
C558        H563   1.110       .  S
C558        H564   1.108       .  S
C565        C566   1.425       .  A
C565        C570   1.413       .  A
C565        H572   1.064       .  S
C566        C567   1.431       .  A
C567        C574   1.498       .  S
C567        C568   1.420       .  A
C568        C569   1.420       .  A
C568        H573   1.068       .  S
C569        C570   1.407       .  A
C570        C571   1.508       .  S
C571        H575   1.110       .  S
C571        H576   1.111       .  S
C571        H577   1.104       .  S
C574        H578   1.110       .  S
C574        H579   1.104       .  S
C574        H580   1.109       .  S
C581        C582   1.433       .  A
C581        C586   1.439       .  A
C581        H588   1.082       .  S
C582        C583   1.392       .  A
C583        C590   1.506       .  S
C583        C584   1.406       .  A
C584        C585   1.431       .  A
C584        H589   1.065       .  S
C585        C586   1.431       .  A
C586        C587   1.506       .  S
C587        H591   1.111       .  S
C587        H592   1.108       .  S
C587        H593   1.109       .  S
C590        H594   1.110       .  S
C590        H595   1.111       .  S
C590        H596   1.110       .  S
C597        C598   1.415       .  A
C597        C602   1.403       .  A
C597        H604   1.076       .  S
C598        C599   1.435       .  A
C599        C606   1.512       .  S
C599        C600   1.411       .  A
C600        C601   1.403       .  A
C600        H605   1.084       .  S
C601        C602   1.410       .  A
C602        C603   1.508       .  S
C603        H607   1.111       .  S
C603        H608   1.110       .  S
C603        H609   1.110       .  S
C606        H610   1.096       .  S
C606        H611   1.104       .  S
C606        H612   1.111       .  S
C613        C614   1.441       .  A
C613        C618   1.468       .  A
C613        H620   1.082       .  S
C614        C615   1.376       .  A
C615        C622   1.463       .  S
C615        C616   1.327       .  A
C616        C617   1.357       .  A
C616        H621   1.014       .  S
C617        C618   1.458       .  A
C618        C619   1.499       .  S
C619        H623   1.110       .  S
C619        H624   1.109       .  S
C619        H625   1.105       .  S
C622        H626   1.049       .  S
C622        H627   1.072       .  S
C622        H628   1.104       .  S
C629        C630   1.396       .  A
C629        C634   1.407       .  A
C629        H636   1.085       .  S
C630        C631   1.403       .  A
C631        C638   1.510       .  S
C631        C632   1.402       .  A
C632        C633   1.429       .  A
C632        H637   1.077       .  S
C633        C634   1.435       .  A
C634        C635   1.504       .  S
C635        H639   1.111       .  S
C635        H640   1.110       .  S
C635        H641   1.088       .  S
C638        H642   1.110       .  S
C638        H643   1.110       .  S
C638        H644   1.111       .  S
C645        C646   1.433       .  A
C645        C650   1.433       .  A
C645        H652   1.071       .  S
C646        C647   1.433       .  A
C647        C654   1.493       .  S
C647        C648   1.432       .  A
C648        C649   1.433       .  A
C648        H653   1.069       .  S
C649        C650   1.419       .  A
C650        C651   1.502       .  S
C651        H655   1.110       .  S
C651        H656   1.110       .  S
C651        H657   1.111       .  S
C654        H658   1.111       .  S
C654        H659   1.101       .  S
C654        H660   1.109       .  S
C661        C662   1.444       .  A
C661        C666   1.450       .  A
C661        H668   1.078       .  S
C662        C663   1.394       .  A
C663        C670   1.512       .  S
C663        C664   1.409       .  A
C664        C665   1.430       .  A
C664        H669   1.066       .  S
C665        C666   1.444       .  A
C666        C667   1.504       .  S
C667        H671   1.109       .  S
C667        H672   1.106       .  S
C667        H673   1.110       .  S
C670        H674   1.110       .  S
C670        H675   1.110       .  S
C670        H676   1.111       .  S
C677        C678   1.411       .  A
C677        C682   1.423       .  A
C677        H684   1.072       .  S
C678        C679   1.417       .  A
C679        C686   1.504       .  S
C679        C680   1.420       .  A
C680        C681   1.412       .  A
C680        H685   1.068       .  S
C681        C682   1.438       .  A
C682        C683   1.504       .  S
C683        H687   1.110       .  S
C683        H688   1.103       .  S
C683        H689   1.108       .  S
C686        H690   1.110       .  S
C686        H691   1.109       .  S
C686        H692   1.111       .  S
C693        C694   1.410       .  A
C693        C698   1.424       .  A
C693        H700   1.071       .  S
C694        C695   1.432       .  A
C695        C702   1.511       .  S
C695        C696   1.415       .  A
C696        C697   1.420       .  A
C696        H701   1.075       .  S
C697        C698   1.438       .  A
C698        C699   1.503       .  S
C699        H703   1.107       .  S
C699        H704   1.111       .  S
C699        H705   1.107       .  S
C702        H706   1.105       .  S
C702        H707   1.109       .  S
C702        H708   1.111       .  S
C709        C710   1.435       .  A
C709        C714   1.416       .  A
C709        H716   1.065       .  S
C710        C711   1.428       .  A
C711        C718   1.509       .  S
C711        C712   1.419       .  A
C712        C713   1.420       .  A
C712        H717   1.067       .  S
C713        C714   1.409       .  A
C714        C715   1.507       .  S
C715        H719   1.111       .  S
C715        H720   1.110       .  S
C715        H721   1.111       .  S
C718        H722   1.111       .  S
C718        H723   1.104       .  S
C718        H724   1.110       .  S
C725        C726   1.417       .  A
C725        C730   1.409       .  A
C725        H732   1.066       .  S
C726        C727   1.454       .  A
C727        C734   1.520       .  S
C727        C728   1.405       .  A
C728        C729   1.391       .  A
C728        H733   1.084       .  S
C729        C730   1.408       .  A
C730        C731   1.507       .  S
C731        H735   1.111       .  S
C731        H736   1.110       .  S
C731        H737   1.110       .  S
C734        H738   1.111       .  S
C734        H739   1.100       .  S
C734        H740   1.098       .  S
C741        C742   1.430       .  A
C741        C746   1.403       .  A
C741        H748   1.074       .  S
C742        C743   1.407       .  A
C743        C750   1.503       .  S
C743        C744   1.417       .  A
C744        C745   1.432       .  A
C744        H749   1.064       .  S
C745        C746   1.415       .  A
C746        C747   1.501       .  S
C747        H751   1.110       .  S
C747        H752   1.106       .  S
C747        H753   1.108       .  S
C750        H754   1.110       .  S
C750        H755   1.111       .  S
C750        H756   1.110       .  S
C757        C758   1.421       .  A
C757        C762   1.427       .  A
C757        H764   1.063       .  S
C758        C759   1.447       .  A
C759        C766   1.509       .  S
C759        C760   1.426       .  A
C760        C761   1.411       .  A
C760        H765   1.071       .  S
C761        C762   1.433       .  A
C762        C763   1.508       .  S
C763        H767   1.110       .  S
C763        H768   1.105       .  S
C763        H769   1.109       .  S
C766        H770   1.108       .  S
C766        H771   1.110       .  S
C766        H772   1.111       .  S
C773        C774   1.415       .  A
C773        C778   1.429       .  A
C773        H780   1.073       .  S
C774        C775   1.431       .  A
C775        C782   1.516       .  S
C775        C776   1.423       .  A
C776        C777   1.417       .  A
C776        H781   1.076       .  S
C777        C778   1.423       .  A
C778        C779   1.506       .  S
C779        H783   1.111       .  S
C779        H784   1.111       .  S
C779        H785   1.106       .  S
C782        H786   1.110       .  S
C782        H787   1.112       .  S
C782        H788   1.107       .  S
C789        C790   1.411       .  A
C789        C794   1.402       .  A
C789        H796   1.071       .  S
C790        C791   1.447       .  A
C791        C798   1.517       .  S
C791        C792   1.412       .  A
C792        C793   1.396       .  A
C792        H797   1.085       .  S
C793        C794   1.408       .  A
C794        C795   1.509       .  S
C795        H799   1.111       .  S
C795        H800   1.109       .  S
C795        H801   1.111       .  S
C798        H802   1.111       .  S
C798        H803   1.103       .  S
C798        H804   1.096       .  S
C805        C806   1.356       .  A
C805        C810   1.324       .  A
C805        H812   1.000       .  S
C806        C807   1.463       .  A
C807        C814   1.499       .  S
C807        C808   1.469       .  A
C808        C809   1.441       .  A
C808        H813   1.078       .  S
C809        C810   1.387       .  A
C810        C811   1.474       .  S
C811        H815   1.042       .  S
C811        H816   1.081       .  S
C811        H817   1.103       .  S
C814        H818   1.110       .  S
C814        H819   1.102       .  S
C814        H820   1.110       .  S
C821        C822   1.424       .  A
C821        C826   1.426       .  A
C821        H828   1.073       .  S
C822        C823   1.428       .  A
C823        C830   1.507       .  S
C823        C824   1.431       .  A
C824        C825   1.427       .  A
C824        H829   1.077       .  S
C825        C826   1.435       .  A
C826        C827   1.503       .  S
C827        H831   1.109       .  S
C827        H832   1.110       .  S
C827        H833   1.101       .  S
C830        H834   1.111       .  S
C830        H835   1.108       .  S
C830        H836   1.110       .  S
C837        C838   1.444       .  A
C837        C842   1.454       .  A
C837        H844   1.076       .  S
C838        C839   1.400       .  A
C839        C846   1.512       .  S
C839        C840   1.415       .  A
C840        C841   1.424       .  A
C840        H845   1.068       .  S
C841        C842   1.453       .  A
C842        C843   1.501       .  S
C843        H847   1.109       .  S
C843        H848   1.101       .  S
C843        H849   1.110       .  S
C846        H850   1.110       .  S
C846        H851   1.112       .  S
C846        H852   1.110       .  S
C853        C854   1.425       .  A
C853        C858   1.405       .  A
C853        H860   1.074       .  S
C854        C855   1.444       .  A
C855        C862   1.508       .  S
C855        C856   1.414       .  A
C856        C857   1.393       .  A
C856        H861   1.085       .  S
C857        C858   1.401       .  A
C858        C859   1.510       .  S
C859        H863   1.111       .  S
C859        H864   1.110       .  S
C859        H865   1.110       .  S
C862        H866   1.090       .  S
C862        H867   1.111       .  S
C862        H868   1.111       .  S
C869        C870   1.420       .  A
C869        C874   1.407       .  A
C869        H876   1.080       .  S
C870        C871   1.436       .  A
C871        C878   1.510       .  S
C871        C872   1.409       .  A
C872        C873   1.402       .  A
C872        H877   1.085       .  S
C873        C874   1.414       .  A
C874        C875   1.509       .  S
C875        H879   1.111       .  S
C875        H880   1.109       .  S
C875        H881   1.110       .  S
C878        H882   1.089       .  S
C878        H883   1.111       .  S
C878        H884   1.111       .  S
C885        C886   1.392       .  A
C885        C890   1.407       .  A
C885        H892   1.085       .  S
C886        C887   1.402       .  A
C887        C894   1.506       .  S
C887        C888   1.406       .  A
C888        C889   1.420       .  A
C888        H893   1.081       .  S
C889        C890   1.440       .  A
C890        C891   1.509       .  S
C891        H895   1.111       .  S
C891        H896   1.102       .  S
C891        H897   1.102       .  S
C894        H898   1.110       .  S
C894        H899   1.111       .  S
C894        H900   1.111       .  S
C901        C902   1.393       .  A
C901        C906   1.399       .  A
C901        H908   1.084       .  S
C902        C903   1.404       .  A
C903        C910   1.509       .  S
C903        C904   1.405       .  A
C904        C905   1.428       .  A
C904        H909   1.075       .  S
C905        C906   1.438       .  A
C906        C907   1.509       .  S
C907        H911   1.111       .  S
C907        H912   1.089       .  S
C907        H913   1.104       .  S
C910        H914   1.110       .  S
C910        H915   1.110       .  S
C910        H916   1.111       .  S
C917        C918   1.429       .  A
C917        C922   1.405       .  A
C917        H924   1.075       .  S
C918        C919   1.444       .  A
C919        C926   1.505       .  S
C919        C920   1.413       .  A
C920        C921   1.395       .  A
C920        H925   1.084       .  S
C921        C922   1.404       .  A
C922        C923   1.510       .  S
C923        H927   1.111       .  S
C923        H928   1.111       .  S
C923        H929   1.109       .  S
C926        H930   1.098       .  S
C926        H931   1.106       .  S
C926        H932   1.111       .  S
C933        C934   1.417       .  A
C933        C938   1.403       .  A
C933        H940   1.070       .  S
C934        C935   1.452       .  A
C935        C942   1.513       .  S
C935        C936   1.410       .  A
C936        C937   1.389       .  A
C936        H941   1.085       .  S
C937        C938   1.406       .  A
C938        C939   1.510       .  S
C939        H943   1.111       .  S
C939        H944   1.111       .  S
C939        H945   1.109       .  S
C942        H946   1.099       .  S
C942        H947   1.101       .  S
C942        H948   1.111       .  S
C949        C950   1.428       .  A
C949        C954   1.432       .  A
C949        H956   1.081       .  S
C950        C951   1.419       .  A
C951        C958   1.504       .  S
C951        C952   1.425       .  A
C952        C953   1.421       .  A
C952        H957   1.078       .  S
C953        C954   1.430       .  A
C954        C955   1.503       .  S
C955        H959   1.111       .  S
C955        H960   1.111       .  S
C955        H961   1.107       .  S
C958        H962   1.111       .  S
C958        H963   1.106       .  S
C958        H964   1.110       .  S
C965        C966   1.393       .  A
C965        C970   1.406       .  A
C965        H972   1.085       .  S
C966        C967   1.404       .  A
C967        C974   1.506       .  S
C967        C968   1.409       .  A
C968        C969   1.419       .  A
C968        H973   1.080       .  S
C969        C970   1.440       .  A
C970        C971   1.512       .  S
C971        H975   1.111       .  S
C971        H976   1.106       .  S
C971        H977   1.100       .  S
C974        H978   1.110       .  S
C974        H979   1.110       .  S
C974        H980   1.111       .  S
C981        C982   1.418       .  A
C981        C986   1.416       .  A
C981        H988   1.064       .  S
C982        C983   1.434       .  A
C983        C990   1.505       .  S
C983        C984   1.415       .  A
C984        C985   1.417       .  A
C984        H989   1.071       .  S
C985        C986   1.407       .  A
C986        C987   1.506       .  S
C987        H991   1.110       .  S
C987        H992   1.111       .  S
C987        H993   1.111       .  S
C990        H994   1.110       .  S
C990        H995   1.102       .  S
C990        H996   1.110       .  S
C997        C998   1.421       .  A
C997       C1002   1.415       .  A
C997       H1004   1.074       .  S
C998        C999   1.413       .  A
C999       C1006   1.510       .  S
C999       C1000   1.422       .  A
C1000      C1001   1.422       .  A
C1000      H1005   1.070       .  S
C1001      C1002   1.435       .  A
C1002      C1003   1.507       .  S
C1003      H1007   1.109       .  S
C1003      H1008   1.111       .  S
C1003      H1009   1.102       .  S
C1006      H1010   1.110       .  S
C1006      H1011   1.109       .  S
C1006      H1012   1.111       .  S
C1013      C1014   1.426       .  A
C1013      C1018   1.408       .  A
C1013      H1020   1.076       .  S
C1014      C1015   1.437       .  A
C1015      C1022   1.503       .  S
C1015      C1016   1.404       .  A
C1016      C1017   1.393       .  A
C1016      H1021   1.084       .  S
C1017      C1018   1.406       .  A
C1018      C1019   1.509       .  S
C1019      H1023   1.111       .  S
C1019      H1024   1.109       .  S
C1019      H1025   1.110       .  S
C1022      H1026   1.093       .  S
C1022      H1027   1.105       .  S
C1022      H1028   1.111       .  S
C1029      C1030   1.407       .  A
C1029      C1034   1.419       .  A
C1029      H1036   1.080       .  S
C1030      C1031   1.426       .  A
C1031      C1038   1.493       .  S
C1031      C1032   1.423       .  A
C1032      C1033   1.420       .  A
C1032      H1037   1.058       .  S
C1033      C1034   1.439       .  A
C1034      C1035   1.504       .  S
C1035      H1039   1.108       .  S
C1035      H1040   1.111       .  S
C1035      H1041   1.104       .  S
C1038      H1042   1.105       .  S
C1038      H1043   1.109       .  S
C1038      H1044   1.110       .  S
C1045      C1046   1.362       .  A
C1045      C1050   1.348       .  A
C1045      H1052   1.088       .  S
C1046      C1047   1.461       .  A
C1047      C1054   1.501       .  S
C1047      C1048   1.467       .  A
C1048      C1049   1.447       .  A
C1048      H1053   1.081       .  S
C1049      C1050   1.383       .  A
C1050      C1051   1.461       .  S
C1051      H1055   1.078       .  S
C1051      H1056   1.098       .  S
C1051      H1057   1.087       .  S
C1054      H1058   1.110       .  S
C1054      H1059   1.104       .  S
C1054      H1060   1.108       .  S
C1061      C1062   1.424       .  A
C1061      C1066   1.417       .  A
C1061      H1068   1.075       .  S
C1062      C1063   1.416       .  A
C1063      C1070   1.498       .  S
C1063      C1064   1.408       .  A
C1064      C1065   1.420       .  A
C1064      H1069   1.071       .  S
C1065      C1066   1.419       .  A
C1066      C1067   1.507       .  S
C1067      H1071   1.110       .  S
C1067      H1072   1.105       .  S
C1067      H1073   1.110       .  S
C1070      H1074   1.107       .  S
C1070      H1075   1.104       .  S
C1070      H1076   1.111       .  S
C1077      C1078   1.388       .  A
C1077      C1082   1.405       .  A
C1077      H1084   1.085       .  S
C1078      C1079   1.407       .  A
C1079      C1086   1.508       .  S
C1079      C1080   1.401       .  A
C1080      C1081   1.416       .  A
C1080      H1085   1.073       .  S
C1081      C1082   1.452       .  A
C1082      C1083   1.513       .  S
C1083      H1087   1.111       .  S
C1083      H1088   1.099       .  S
C1083      H1089   1.102       .  S
C1086      H1090   1.109       .  S
C1086      H1091   1.111       .  S
C1086      H1092   1.111       .  S
C1093      C1094   1.392       .  A
C1093      C1098   1.410       .  A
C1093      H1100   1.085       .  S
C1094      C1095   1.403       .  A
C1095      C1102   1.508       .  S
C1095      C1096   1.408       .  A
C1096      C1097   1.425       .  A
C1096      H1101   1.072       .  S
C1097      C1098   1.448       .  A
C1098      C1099   1.509       .  S
C1099      H1103   1.111       .  S
C1099      H1104   1.106       .  S
C1099      H1105   1.093       .  S
C1102      H1106   1.108       .  S
C1102      H1107   1.111       .  S
C1102      H1108   1.111       .  S
C1109      C1110   1.401       .  A
C1109      C1114   1.415       .  A
C1109      H1116   1.085       .  S
C1110      C1111   1.411       .  A
C1111      C1118   1.510       .  S
C1111      C1112   1.406       .  A
C1112      C1113   1.423       .  A
C1112      H1117   1.077       .  S
C1113      C1114   1.439       .  A
C1114      C1115   1.507       .  S
C1115      H1119   1.111       .  S
C1115      H1120   1.093       .  S
C1115      H1121   1.111       .  S
C1118      H1122   1.110       .  S
C1118      H1123   1.109       .  S
C1118      H1124   1.111       .  S
C1125      C1126   1.397       .  A
C1125      C1130   1.405       .  A
C1125      H1132   1.084       .  S
C1126      C1127   1.409       .  A
C1127      C1134   1.510       .  S
C1127      C1128   1.403       .  A
C1128      C1129   1.420       .  A
C1128      H1133   1.072       .  S
C1129      C1130   1.439       .  A
C1130      C1131   1.510       .  S
C1131      H1135   1.105       .  S
C1131      H1136   1.089       .  S
C1131      H1137   1.111       .  S
C1134      H1138   1.110       .  S
C1134      H1139   1.110       .  S
C1134      H1140   1.111       .  S
C1141      C1142   1.402       .  A
C1141      C1146   1.409       .  A
C1141      H1148   1.085       .  S
C1142      C1143   1.411       .  A
C1143      C1150   1.506       .  S
C1143      C1144   1.415       .  A
C1144      C1145   1.421       .  A
C1144      H1149   1.079       .  S
C1145      C1146   1.435       .  A
C1146      C1147   1.510       .  S
C1147      H1151   1.110       .  S
C1147      H1152   1.111       .  S
C1147      H1153   1.094       .  S
C1150      H1154   1.110       .  S
C1150      H1155   1.109       .  S
C1150      H1156   1.111       .  S
C1157      C1158   1.421       .  A
C1157      C1162   1.400       .  A
C1157      H1164   1.073       .  S
C1158      C1159   1.443       .  A
C1159      C1166   1.515       .  S
C1159      C1160   1.409       .  A
C1160      C1161   1.396       .  A
C1160      H1165   1.085       .  S
C1161      C1162   1.402       .  A
C1162      C1163   1.510       .  S
C1163      H1167   1.111       .  S
C1163      H1168   1.109       .  S
C1163      H1169   1.110       .  S
C1166      H1170   1.092       .  S
C1166      H1171   1.110       .  S
C1166      H1172   1.110       .  S
C1173      C1174   1.397       .  A
C1173      C1178   1.412       .  A
C1173      H1180   1.085       .  S
C1174      C1175   1.406       .  A
C1175      C1182   1.510       .  S
C1175      C1176   1.394       .  A
C1176      C1177   1.413       .  A
C1176      H1181   1.071       .  S
C1177      C1178   1.447       .  A
C1178      C1179   1.513       .  S
C1179      H1183   1.092       .  S
C1179      H1184   1.111       .  S
C1179      H1185   1.102       .  S
C1182      H1186   1.110       .  S
C1182      H1187   1.110       .  S
C1182      H1188   1.111       .  S
C1189      C1190   1.427       .  A
C1189      C1194   1.427       .  A
C1189      H1196   1.073       .  S
C1190      C1191   1.433       .  A
C1191      C1198   1.503       .  S
C1191      C1192   1.431       .  A
C1192      C1193   1.431       .  A
C1192      H1197   1.064       .  S
C1193      C1194   1.435       .  A
C1194      C1195   1.510       .  S
C1195      H1199   1.110       .  S
C1195      H1200   1.110       .  S
C1195      H1201   1.102       .  S
C1198      H1202   1.109       .  S
C1198      H1203   1.110       .  S
C1198      H1204   1.110       .  S
C1205      C1206   1.415       .  A
C1205      C1210   1.408       .  A
C1205      H1212   1.061       .  S
C1206      C1207   1.446       .  A
C1207      C1214   1.504       .  S
C1207      C1208   1.414       .  A
C1208      C1209   1.393       .  A
C1208      H1213   1.085       .  S
C1209      C1210   1.405       .  A
C1210      C1211   1.508       .  S
C1211      H1215   1.110       .  S
C1211      H1216   1.110       .  S
C1211      H1217   1.110       .  S
C1214      H1218   1.105       .  S
C1214      H1219   1.107       .  S
C1214      H1220   1.111       .  S
C1221      C1222   1.421       .  A
C1221      C1226   1.437       .  A
C1221      H1228   1.073       .  S
C1222      C1223   1.414       .  A
C1223      C1230   1.515       .  S
C1223      C1224   1.432       .  A
C1224      C1225   1.416       .  A
C1224      H1229   1.077       .  S
C1225      C1226   1.464       .  A
C1226      C1227   1.500       .  S
C1227      H1231   1.111       .  S
C1227      H1232   1.109       .  S
C1227      H1233   1.108       .  S
C1230      H1234   1.110       .  S
C1230      H1235   1.110       .  S
C1230      H1236   1.111       .  S
C1237      C1238   1.360       .  A
C1237      C1242   1.329       .  A
C1237      H1244   1.032       .  S
C1238      C1239   1.447       .  A
C1239      C1246   1.499       .  S
C1239      C1240   1.464       .  A
C1240      C1241   1.450       .  A
C1240      H1245   1.074       .  S
C1241      C1242   1.388       .  A
C1242      C1243   1.450       .  S
C1243      H1247   1.067       .  S
C1243      H1248   1.100       .  S
C1243      H1249   1.031       .  S
C1246      H1250   1.108       .  S
C1246      H1251   1.109       .  S
C1246      H1252   1.110       .  S
C1253      C1254   1.407       .  A
C1253      C1258   1.405       .  A
C1253      H1260   1.061       .  S
C1254      C1255   1.440       .  A
C1255      C1262   1.509       .  S
C1255      C1256   1.420       .  A
C1256      C1257   1.404       .  A
C1256      H1261   1.084       .  S
C1257      C1258   1.411       .  A
C1258      C1259   1.509       .  S
C1259      H1263   1.111       .  S
C1259      H1264   1.110       .  S
C1259      H1265   1.110       .  S
C1262      H1266   1.096       .  S
C1262      H1267   1.106       .  S
C1262      H1268   1.111       .  S
C1269      C1270   1.407       .  A
C1269      C1274   1.431       .  A
C1269      H1276   1.081       .  S
C1270      C1271   1.427       .  A
C1271      C1278   1.519       .  S
C1271      C1272   1.412       .  A
C1272      C1273   1.415       .  A
C1272      H1277   1.057       .  S
C1273      C1274   1.453       .  A
C1274      C1275   1.500       .  S
C1275      H1279   1.100       .  S
C1275      H1280   1.109       .  S
C1275      H1281   1.111       .  S
C1278      H1282   1.103       .  S
C1278      H1283   1.108       .  S
C1278      H1284   1.113       .  S
C1285      C1286   1.407       .  A
C1285      C1290   1.438       .  A
C1285      H1292   1.072       .  S
C1286      C1287   1.444       .  A
C1287      C1294   1.520       .  S
C1287      C1288   1.429       .  A
C1288      C1289   1.413       .  A
C1288      H1293   1.074       .  S
C1289      C1290   1.456       .  A
C1290      C1291   1.498       .  S
C1291      H1295   1.110       .  S
C1291      H1296   1.108       .  S
C1291      H1297   1.105       .  S
C1294      H1298   1.110       .  S
C1294      H1299   1.105       .  S
C1294      H1300   1.113       .  S
C1301      C1302   1.426       .  A
C1301      C1306   1.427       .  A
C1301      H1308   1.077       .  S
C1302      C1303   1.429       .  A
C1303      C1310   1.504       .  S
C1303      C1304   1.423       .  A
C1304      C1305   1.428       .  A
C1304      H1309   1.079       .  S
C1305      C1306   1.433       .  A
C1306      C1307   1.506       .  S
C1307      H1311   1.110       .  S
C1307      H1312   1.111       .  S
C1307      H1313   1.110       .  S
C1310      H1314   1.111       .  S
C1310      H1315   1.108       .  S
C1310      H1316   1.108       .  S
C1317      C1318   1.381       .  A
C1317      C1322   1.402       .  A
C1317      H1324   1.087       .  S
C1318      C1319   1.400       .  A
C1319      C1326   1.508       .  S
C1319      C1320   1.409       .  A
C1320      C1321   1.432       .  A
C1320      H1325   1.074       .  S
C1321      C1322   1.441       .  A
C1322      C1323   1.481       .  S
C1323      H1327   1.110       .  S
C1323      H1328   1.111       .  S
C1323      H1329   1.068       .  S
C1326      H1330   1.111       .  S
C1326      H1331   1.110       .  S
C1326      H1332   1.111       .  S
C1333      C1334   1.393       .  A
C1333      C1338   1.406       .  A
C1333      H1340   1.085       .  S
C1334      C1335   1.408       .  A
C1335      C1342   1.508       .  S
C1335      C1336   1.406       .  A
C1336      C1337   1.415       .  A
C1336      H1341   1.074       .  S
C1337      C1338   1.445       .  A
C1338      C1339   1.513       .  S
C1339      H1343   1.111       .  S
C1339      H1344   1.106       .  S
C1339      H1345   1.103       .  S
C1342      H1346   1.111       .  S
C1342      H1347   1.109       .  S
C1342      H1348   1.111       .  S
C1349      C1350   1.357       .  A
C1349      C1354   1.324       .  A
C1349      H1356   1.035       .  S
C1350      C1351   1.459       .  A
C1351      C1358   1.502       .  S
C1351      C1352   1.463       .  A
C1352      C1353   1.438       .  A
C1352      H1357   1.080       .  S
C1353      C1354   1.383       .  A
C1354      C1355   1.447       .  S
C1355      H1359   1.071       .  S
C1355      H1360   1.028       .  S
C1355      H1361   1.100       .  S
C1358      H1362   1.101       .  S
C1358      H1363   1.110       .  S
C1358      H1364   1.110       .  S
C1365      C1366   1.419       .  A
C1365      C1370   1.409       .  A
C1365      H1372   1.079       .  S
C1366      C1367   1.436       .  A
C1367      C1374   1.510       .  S
C1367      C1368   1.406       .  A
C1368      C1369   1.399       .  A
C1368      H1373   1.085       .  S
C1369      C1370   1.411       .  A
C1370      C1371   1.508       .  S
C1371      H1375   1.111       .  S
C1371      H1376   1.110       .  S
C1371      H1377   1.109       .  S
C1374      H1378   1.110       .  S
C1374      H1379   1.095       .  S
C1374      H1380   1.111       .  S
C1381      C1382   1.424       .  A
C1381      C1386   1.429       .  A
C1381      H1388   1.074       .  S
C1382      C1383   1.427       .  A
C1383      C1390   1.506       .  S
C1383      C1384   1.428       .  A
C1384      C1385   1.432       .  A
C1384      H1389   1.077       .  S
C1385      C1386   1.418       .  A
C1386      C1387   1.502       .  S
C1387      H1391   1.110       .  S
C1387      H1392   1.111       .  S
C1387      H1393   1.108       .  S
C1390      H1394   1.107       .  S
C1390      H1395   1.110       .  S
C1390      H1396   1.110       .  S
C1397      C1398   1.423       .  A
C1397      C1402   1.426       .  A
C1397      H1404   1.062       .  S
C1398      C1399   1.429       .  A
C1399      C1406   1.503       .  S
C1399      C1400   1.426       .  A
C1400      C1401   1.417       .  A
C1400      H1405   1.069       .  S
C1401      C1402   1.432       .  A
C1402      C1403   1.499       .  S
C1403      H1407   1.109       .  S
C1403      H1408   1.111       .  S
C1403      H1409   1.103       .  S
C1406      H1410   1.110       .  S
C1406      H1411   1.103       .  S
C1406      H1412   1.107       .  S
C1413      C1414   1.390       .  A
C1413      C1418   1.406       .  A
C1413      H1420   1.085       .  S
C1414      C1415   1.405       .  A
C1415      C1422   1.508       .  S
C1415      C1416   1.403       .  A
C1416      C1417   1.419       .  A
C1416      H1421   1.080       .  S
C1417      C1418   1.442       .  A
C1418      C1419   1.508       .  S
C1419      H1423   1.111       .  S
C1419      H1424   1.098       .  S
C1419      H1425   1.103       .  S
C1422      H1426   1.109       .  S
C1422      H1427   1.111       .  S
C1422      H1428   1.111       .  S
C1429      C1430   1.428       .  A
C1429      C1434   1.419       .  A
C1429      H1436   1.069       .  S
C1430      C1431   1.419       .  A
C1431      C1438   1.508       .  S
C1431      C1432   1.423       .  A
C1432      C1433   1.430       .  A
C1432      H1437   1.071       .  S
C1433      C1434   1.416       .  A
C1434      C1435   1.507       .  S
C1435      H1439   1.110       .  S
C1435      H1440   1.109       .  S
C1435      H1441   1.106       .  S
C1438      H1442   1.106       .  S
C1438      H1443   1.111       .  S
C1438      H1444   1.109       .  S
C1445      C1446   1.411       .  A
C1445      C1450   1.424       .  A
C1445      H1452   1.069       .  S
C1446      C1447   1.436       .  A
C1447      C1454   1.505       .  S
C1447      C1448   1.427       .  A
C1448      C1449   1.423       .  A
C1448      H1453   1.060       .  S
C1449      C1450   1.445       .  A
C1450      C1451   1.503       .  S
C1451      H1455   1.111       .  S
C1451      H1456   1.098       .  S
C1451      H1457   1.108       .  S
C1454      H1458   1.110       .  S
C1454      H1459   1.108       .  S
C1454      H1460   1.110       .  S
C1461      C1462   1.424       .  A
C1461      C1466   1.421       .  A
C1461      H1468   1.070       .  S
C1462      C1463   1.438       .  A
C1463      C1470   1.505       .  S
C1463      C1464   1.441       .  A
C1464      C1465   1.441       .  A
C1464      H1469   1.074       .  S
C1465      C1466   1.405       .  A
C1466      C1467   1.505       .  S
C1467      H1471   1.111       .  S
C1467      H1472   1.110       .  S
C1467      H1473   1.111       .  S
C1470      H1474   1.110       .  S
C1470      H1475   1.101       .  S
C1470      H1476   1.109       .  S
C1477      C1478   1.390       .  A
C1477      C1482   1.409       .  A
C1477      H1484   1.085       .  S
C1478      C1479   1.401       .  A
C1479      C1486   1.509       .  S
C1479      C1480   1.398       .  A
C1480      C1481   1.423       .  A
C1480      H1485   1.078       .  S
C1481      C1482   1.439       .  A
C1482      C1483   1.504       .  S
C1483      H1487   1.111       .  S
C1483      H1488   1.099       .  S
C1483      H1489   1.103       .  S
C1486      H1490   1.109       .  S
C1486      H1491   1.111       .  S
C1486      H1492   1.111       .  S
