geometry optimzed in LAMMPS
_audit_creation_date              2020-11-30 
_audit_creation_method            'lammps2cif' 
_symmetry_space_group_name_H-M    'P1' 
_symmetry_Int_Tables_number       1 
_symmetry_cell_setting            triclinic 
loop_ 
_symmetry_equiv_pos_as_xyz 
  x,y,z 
_cell_length_a                    39.9673082 
_cell_length_b                    39.788179811937646 
_cell_length_c                    31.682600963303553 
_cell_angle_alpha                 76.14299218542446 
_cell_angle_beta                  88.3264353245264 
_cell_angle_gamma                 100.71022397983579 
loop_ 
_atom_site_label 
_atom_site_type_symbol 
_atom_site_fract_x 
_atom_site_fract_y 
_atom_site_fract_z 
_atom_site_charge 
O1          O  0.06314130  0.26265479  0.50452739    -0.74200
O2          O  0.98625099  0.24538036  0.07106372    -0.74200
O3          O  0.02577701  0.20611844  0.04122431    -0.74300
O4          O  0.02293475  0.30155931  0.53313153    -0.74300
O5          O  0.49825660  0.29974661  0.46876853    -0.74300
O6          O  0.48111791  0.19170850  0.99821826    -0.74200
O7          O  0.43740743  0.22706799  0.02754858    -0.74200
O8          O  0.53797706  0.26260542  0.43585006    -0.74300
Ni9        Ni  0.02353050  0.25231195  0.54487384     1.25400
Ni10       Ni  0.47292710  0.23886014  0.98151372     1.25400
C11         C  0.56837319  0.26834620  0.44783463     0.88000
C12         C  0.44498090  0.23029192  0.06543342     0.87900
C13         C  0.00721255  0.18342572  0.02467901     0.87900
C14         C  0.00705222  0.31682058  0.50206910     0.88100
O15         O  0.99181250  0.25500761  0.20159577    -0.74200
O16         O  0.06412174  0.27119732  0.27488830    -0.74200
O17         O  0.03713511  0.21717622  0.24035056    -0.74300
O18         O  0.01870058  0.30869827  0.23553938    -0.74300
O19         O  0.47924003  0.28396996  0.28416967    -0.74300
O20         O  0.49823231  0.19209976  0.29063557    -0.74200
O21         O  0.52706544  0.24802117  0.32082126    -0.74200
O22         O  0.45083328  0.22772570  0.25475589    -0.74300
Ni23       Ni  0.02927700  0.26381656  0.23601678     1.25400
Ni24       Ni  0.48772499  0.23723927  0.28992100     1.25400
C25         C  0.96121361  0.24122016  0.21801790     0.88000
C26         C  0.05674111  0.26136395  0.31604260     0.87900
C27         C  0.02025468  0.19041260  0.26872565     0.87900
C28         C  0.99634627  0.31232759  0.26298925     0.88100
O29         O  0.41258066  0.49228913  0.46074919    -0.80700
O30         O  0.06508124  0.48524367  0.47056829    -0.65400
O31         O  0.47609069  0.47351468  0.00018273    -1.12000
C32         C  0.49718281  0.08563640  0.02537693     1.06200
O33         O  0.07822089  0.00578359  0.02971635    -0.78600
O34         O  0.03222453  0.02119674  0.08439656    -0.66100
Ni35       Ni  0.43720080  0.45443736  0.46200204     1.34900
C36         C  0.00217642  0.00497681  0.09917913     0.85000
O37         O  0.01199356  0.42990963  0.47768332    -0.79100
O38         O  0.45818088  0.41459354  0.46172906    -0.89400
C39         C  0.09324581  0.50154003  0.99593327     0.84500
O40         O  0.45997592  0.47908744  0.40585942    -0.67600
O41         O  0.03065720  0.08264252  0.02467617    -0.86900
C42         C  0.49133504  0.49097758  0.39323608     0.85400
C43         C  0.98624138  0.40922209  0.46834691     1.06900
H44         H  0.02451308  0.04392038  0.46496517     0.38700
O45         O  0.02095766  0.02759422  0.49343016    -1.09500
O46         O  0.47759216  0.99725345  0.07668301    -0.66200
Ni47       Ni  0.47192795  0.01445320  0.01438477     1.26300
O48         O  0.01506536  0.49484762  0.42050454    -0.66400
O49         O  0.47285020  0.06103915  0.02162289    -0.78700
C50         C  0.40563375  0.00220301  0.49892585     0.84700
O51         O  0.42392508  0.00302266  0.02955047    -0.65900
Ni52       Ni  0.05293117  0.04326512  0.02657661     1.27400
Ni53       Ni  0.01691444  0.47764371  0.48337555     1.26100
H54         H  0.47213191  0.45734208  0.02876899     0.39300
O55         O  0.41672456  0.48871404  0.20956182    -0.80700
O56         O  0.07157658  0.49376938  0.22033202    -0.65400
O57         O  0.47554087  0.47217066  0.24933141    -1.12000
C58         C  0.50687846  0.08881205  0.27438873     1.06200
O59         O  0.08318651  0.00885884  0.28148557    -0.78600
O60         O  0.03581168  0.02163242  0.33677968    -0.66100
Ni61       Ni  0.44316672  0.45208476  0.21458527     1.34900
C62         C  0.00487747  0.00744673  0.34994558     0.85000
O63         O  0.02269041  0.43664911  0.22986063    -0.79100
O64         O  0.46595287  0.41285309  0.21945467    -0.89400
C65         C  0.09213981  0.50161538  0.24775233     0.84500
O66         O  0.46531186  0.47482657  0.15713264    -0.67600
O67         O  0.03673587  0.08570132  0.27969772    -0.86900
C68         C  0.49541052  0.49195177  0.14355561     0.85400
C69         C  0.99816533  0.41142565  0.22901459     1.06900
H70         H  0.02958484  0.04635214  0.21553387     0.38700
O71         O  0.02537818  0.02950577  0.24359719    -1.09500
O72         O  0.48059530  0.00360082  0.32445268    -0.66200
Ni73       Ni  0.47814432  0.01924873  0.26186063     1.26300
O74         O  0.01928033  0.49903507  0.17142937    -0.66400
O75         O  0.48161645  0.06670293  0.26704793    -0.78700
C76         C  0.40930881  0.00234713  0.24746211     0.84700
O77         O  0.43004926  0.01137827  0.27417374    -0.65900
Ni78       Ni  0.05820659  0.04623006  0.28015263     1.27400
Ni79       Ni  0.02371749  0.48388514  0.23401707     1.26100
H80         H  0.47201506  0.45601698  0.27794006     0.39300
O81         O  0.26169012  0.52528009  0.05016182    -0.74200
O82         O  0.23832038  0.44143273  0.50314539    -0.74200
O83         O  0.29999798  0.48877566  0.01470195    -0.74300
O84         O  0.20422641  0.48201518  0.03897549    -0.74300
O85         O  0.20049705  0.02133345  0.47791604    -0.74300
O86         O  0.29638838  0.02754059  0.45467575    -0.74200
O87         O  0.23869749  0.98521614  0.44159328    -0.74200
O88         O  0.25483193  0.05465390  0.98989226    -0.74300
Ni89       Ni  0.25224166  0.48392594  0.02909620     1.25400
Ni90       Ni  0.24835075  0.02599317  0.46405952     1.25400
C91         C  0.25808148  0.04878304  0.03086987     0.88000
C92         C  0.23652840  0.95376176  0.46523114     0.87900
C93         C  0.31266474  0.00989773  0.48336908     0.87900
C94         C  0.18187841  0.99251414  0.01210018     0.88100
O95         O  0.24623992  0.52004883  0.17412874    -0.74200
O96         O  0.23560066  0.44228556  0.27461416    -0.74200
O97         O  0.19473249  0.48512883  0.23440181    -0.74300
O98         O  0.28756471  0.47757700  0.21382995    -0.74300
O99         O  0.30548331  0.01626966  0.25963050    -0.74300
O100        O  0.21181763  0.02260170  0.27642735    -0.74200
O101        O  0.25302680  0.98122538  0.31842922    -0.74200
O102        O  0.26465056  0.05814489  0.21711591    -0.74300
Ni103      Ni  0.24046007  0.47992482  0.22272274     1.25400
Ni104      Ni  0.25927356  0.02090753  0.26940656     1.25400
C105        C  0.25666458  0.55176607  0.17724575     0.88000
C106        C  0.24245795  0.44922427  0.31111772     0.87900
C107        C  0.18790577  0.50560145  0.25770475     0.87900
C108        C  0.31116343  0.49543644  0.23063941     0.88100
C109        C  0.20397859  0.91790807  0.37829712    -0.13100
C110        C  0.23664710  0.42151192  0.35166578     0.09000
C111        C  0.26493432  0.41714293  0.37606169    -0.13100
C112        C  0.26211571  0.41518705  0.42064291    -0.13100
C113        C  0.23200852  0.92540482  0.44285480     0.09000
C114        C  0.20194695  0.92013207  0.42155633    -0.13100
H115        H  0.18189906  0.92082274  0.35970268     0.13000
H116        H  0.29018941  0.42202097  0.35967718     0.13000
H117        H  0.28538295  0.41884116  0.43717581     0.13000
H118        H  0.17841113  0.92462296  0.43502378     0.13000
C119        C  0.23456917  0.08267736  0.07390223    -0.13100
C120        C  0.26376518  0.07739479  0.05284354     0.09000
C121        C  0.29708594  0.58997675  0.06966385    -0.13100
C122        C  0.29465133  0.58696718  0.11452628    -0.13100
C123        C  0.26230674  0.57962506  0.13684417     0.09000
C124        C  0.23459973  0.08280809  0.11790812    -0.13100
H125        H  0.21023605  0.07899363  0.05967550     0.13000
H126        H  0.32112017  0.58818381  0.05447299     0.13000
H127        H  0.31696494  0.58341835  0.13241651     0.13000
H128        H  0.21032706  0.07928258  0.13620836     0.13000
C129        C  0.15237140  0.50926595  0.26515627    -0.16200
C130        C  0.12723889  0.49589032  0.24306845    -0.31400
H131        H  0.14706530  0.02208077  0.28884552     0.12800
H132        H  0.13286898  0.48177697  0.21914523     0.13400
C133        C  0.37396404  0.00750313  0.25186459    -0.16200
C134        C  0.34904977  0.99246127  0.23077896    -0.31400
H135        H  0.36799964  0.02249313  0.27461912     0.12800
H136        H  0.35226164  0.47642441  0.20099803     0.13400
C137        C  0.12950555  0.50073423  0.98790682    -0.16200
C138        C  0.15083492  0.49698880  0.01985844    -0.31400
H139        H  0.13314691  0.99525658  0.95597368     0.12800
H140        H  0.13472601  0.48642847  0.55429381     0.13400
C141        C  0.37001289  0.00546010  0.50647804    -0.16200
C142        C  0.34923735  0.01110370  0.47409287    -0.31400
H143        H  0.36310709  0.50388788  0.03342753     0.12800
H144        H  0.35916979  0.01644093  0.44035092     0.13400
C145        C  0.98740652  0.34718723  0.25883029    -0.16200
C146        C  0.00665146  0.37655770  0.23287610    -0.31400
H147        H  0.46195367  0.34625528  0.26742452     0.12800
H148        H  0.03061261  0.37538916  0.21670904     0.13400
C149        C  0.52574649  0.15287981  0.26279593    -0.16200
C150        C  0.50100768  0.12392719  0.27581277    -0.31400
H151        H  0.55053771  0.15090967  0.24966910     0.12800
H152        H  0.97482796  0.12954207  0.28489689     0.13400
C153        C  0.09209972  0.30209081  0.39951079    -0.13100
C154        C  0.08821438  0.27053674  0.43225243     0.09000
C155        C  0.59679680  0.30647303  0.38075134    -0.13100
C156        C  0.58999711  0.30380676  0.33851543    -0.13100
C157        C  0.08264649  0.26747285  0.34638181     0.09200
C158        C  0.08857694  0.30046685  0.35624817    -0.13100
H159        H  0.08961556  0.32634190  0.40808780     0.13000
H160        H  0.59435972  0.33066476  0.38951589     0.13000
H161        H  0.58332839  0.32617117  0.31577314     0.13000
H162        H  0.08418577  0.32361641  0.33270139     0.13000
C163        C  0.92797832  0.19955726  0.13515117    -0.13100
C164        C  0.93033852  0.23076083  0.10235696     0.09000
C165        C  0.41301356  0.25242015  0.11429347    -0.13100
C166        C  0.41906070  0.25498633  0.15664929    -0.13100
C167        C  0.93546564  0.23450786  0.18798258     0.09000
C168        C  0.93058688  0.20144713  0.17836022    -0.13100
H169        H  0.93103647  0.17539296  0.12675253     0.13000
H170        H  0.41192575  0.27639465  0.08985553     0.13000
H171        H  0.42187679  0.28060595  0.16385939     0.13000
H172        H  0.93531515  0.17861081  0.20218853     0.13000
C173        C  0.98861837  0.37259556  0.46871623    -0.16200
C174        C  0.00856322  0.35509852  0.49537501    -0.31400
H175        H  0.47113492  0.35534702  0.45354199     0.12800
H176        H  0.96314934  0.35214130  0.95622923     0.13400
C177        C  0.50982258  0.14681769  0.03476858    -0.16200
C178        C  0.48854498  0.12040899  0.02381135    -0.31400
H179        H  0.53345146  0.14222688  0.04908227     0.12800
H180        H  0.96756531  0.12653929  0.00949122     0.13400
O181        O  0.05519779  0.26339023  0.97857296    -0.74200
O182        O  0.98142266  0.24160846  0.58061544    -0.74200
O183        O  0.02256731  0.20312394  0.55265865    -0.74300
O184        O  0.01541349  0.30268400  0.00774011    -0.74300
O185        O  0.46724019  0.28697236  0.96814962    -0.74300
O186        O  0.50093162  0.20094362  0.48555979    -0.74200
O187        O  0.46038696  0.23823606  0.51684976    -0.74200
O188        O  0.51107819  0.25170193  0.93922262    -0.74300
Ni189      Ni  0.02202782  0.25492681  0.02635051     1.25400
Ni190      Ni  0.49821960  0.25028437  0.47473158     1.25400
C191        C  0.54179169  0.26262320  0.94775729     0.88000
C192        C  0.46547574  0.23554897  0.55686710     0.87900
C193        C  0.00656943  0.18533832  0.52822593     0.87900
C194        C  0.99280092  0.31120344  0.98147255     0.88100
O195        O  0.95598203  0.24489549  0.68945630    -0.74200
O196        O  0.03284499  0.25474956  0.75594261    -0.74200
O197        O  0.99541328  0.20060731  0.72965577    -0.74300
O198        O  0.99293837  0.29867083  0.71708023    -0.74300
O199        O  0.46745046  0.28687027  0.77346636    -0.74300
O200        O  0.48590773  0.19458454  0.78326445    -0.74200
O201        O  0.51369920  0.25087468  0.81320667    -0.74200
O202        O  0.43987052  0.23040842  0.74395545    -0.74300
Ni203      Ni  0.99547617  0.25022169  0.72079276     1.25400
Ni204      Ni  0.47551164  0.23998903  0.78073823     1.25400
C205        C  0.92544995  0.23505331  0.70741741     0.88000
C206        C  0.02725722  0.24899440  0.79702613     0.87900
C207        C  0.97731516  0.17721704  0.76120486     0.87900
C208        C  0.97397021  0.30680566  0.74489220     0.88100
O209        O  0.41802340  0.49248100  0.96053113    -0.80700
O210        O  0.07249143  0.49279216  0.96918168    -0.65400
O211        O  0.47002586  0.47045660  0.49943420    -1.12000
C212        C  0.50411819  0.08823497  0.51769731     1.06200
O213        O  0.08101086  0.01257657  0.53171619    -0.78600
O214        O  0.03153598  0.02165250  0.58610094    -0.66100
Ni215      Ni  0.44332803  0.45479111  0.96463585     1.34900
C216        C  0.00122305  0.00556917  0.59963606     0.85000
O217        O  0.02435157  0.43401224  0.98031502    -0.79100
O218        O  0.46520662  0.41482881  0.96831174    -0.89400
C219        C  0.08625129  0.49388682  0.49705228     0.84500
O220        O  0.46539382  0.47755786  0.90741209    -0.67600
O221        O  0.02756854  0.08454738  0.52847892    -0.86900
C222        C  0.49598371  0.49281835  0.89393506     0.85400
C223        C  0.00025523  0.40946229  0.97596573     1.06900
H224        H  0.02240235  0.04041462  0.96411821     0.38700
O225        O  0.01936309  0.02395748  0.99248787    -1.09500
O226        O  0.47869817  0.00090477  0.57441041    -0.66200
Ni227      Ni  0.47443412  0.01669282  0.51170889     1.26300
O228        O  0.02004031  0.49612132  0.92173254    -0.66400
O229        O  0.47831938  0.06468086  0.51533787    -0.78700
C230        C  0.40344341  0.99658701  0.00132583     0.84700
O231        O  0.42669561  0.00877086  0.52636703    -0.65900
Ni232      Ni  0.05255222  0.04731758  0.52950184     1.27400
Ni233      Ni  0.02464097  0.48121289  0.98425778     1.26100
H234        H  0.46515130  0.45392223  0.52769222     0.39300
O235        O  0.41837638  0.49569670  0.71101923    -0.80700
O236        O  0.06985651  0.48673836  0.71939861    -0.65400
O237        O  0.47576472  0.47571291  0.74934638    -1.12000
C238        C  0.49847784  0.09095541  0.77293868     1.06200
O239        O  0.07933397  0.00297132  0.78374420    -0.78600
O240        O  0.03304051  0.02156172  0.83464451    -0.66100
Ni241      Ni  0.44190367  0.45703935  0.71565917     1.34900
C242        C  0.00185993  0.00825950  0.84729513     0.85000
O243        O  0.01793090  0.43086573  0.72676553    -0.79100
O244        O  0.46268798  0.41675269  0.71988509    -0.89400
C245        C  0.09081648  0.49465244  0.74658827     0.84500
O246        O  0.46328365  0.47769725  0.65769024    -0.67600
O247        O  0.03776996  0.08410086  0.77174872    -0.86900
C248        C  0.49337302  0.49394649  0.64300462     0.85400
C249        C  0.99183841  0.40755827  0.72416800     1.06900
H250        H  0.02893106  0.04155545  0.71341449     0.38700
O251        O  0.02391566  0.02543414  0.74199368    -1.09500
O252        O  0.47862364  0.00542982  0.82341124    -0.66200
Ni253      Ni  0.47474406  0.02048616  0.76086278     1.26300
O254        O  0.01686663  0.49518455  0.67108179    -0.66400
O255        O  0.47450922  0.06737961  0.76594980    -0.78700
C256        C  0.40626747  0.99928860  0.74773501     0.84700
O257        O  0.42670515  0.00887750  0.77443230    -0.65900
Ni258      Ni  0.05685796  0.04255901  0.77790311     1.27400
Ni259      Ni  0.02171211  0.47834522  0.73340958     1.26100
H260        H  0.47251006  0.45919262  0.77769272     0.39300
O261        O  0.25445566  0.52125829  0.55212458    -0.74200
O262        O  0.24282970  0.44467316  0.00311971    -0.74200
O263        O  0.29448182  0.48647389  0.51634477    -0.74300
O264        O  0.19807949  0.47689283  0.53965196    -0.74300
O265        O  0.19731168  0.01162317  0.97585503    -0.74300
O266        O  0.29341483  0.01699641  0.95489565    -0.74200
O267        O  0.23578687  0.97476008  0.94124283    -0.74200
O268        O  0.25790018  0.06447254  0.49157664    -0.74300
Ni269      Ni  0.24638467  0.48022833  0.53016983     1.25400
Ni270      Ni  0.24533092  0.01580937  0.96308788     1.25400
C271        C  0.26145982  0.05811508  0.53252350     0.88000
C272        C  0.23322626  0.94340225  0.96530407     0.87900
C273        C  0.30946204  0.99983566  0.98436401     0.87900
C274        C  0.18548844  0.00187738  0.51421729     0.88100
O275        O  0.24770907  0.51919571  0.67535243    -0.74200
O276        O  0.23784967  0.44182553  0.77608274    -0.74200
O277        O  0.19572548  0.48249661  0.73402897    -0.74300
O278        O  0.29001120  0.47892638  0.71665503    -0.74300
O279        O  0.30194294  0.01065860  0.76222201    -0.74300
O280        O  0.20829648  0.01650306  0.78051227    -0.74200
O281        O  0.24942358  0.97414088  0.82034377    -0.74200
O282        O  0.26114880  0.05354281  0.72198324    -0.74300
Ni283      Ni  0.24236004  0.47925983  0.72402612     1.25400
Ni284      Ni  0.25573540  0.01498837  0.77283624     1.25400
C285        C  0.25624248  0.55110867  0.67858056     0.88000
C286        C  0.24372771  0.44907636  0.81265618     0.87900
C287        C  0.18724728  0.50238156  0.75715466     0.87900
C288        C  0.31254894  0.49783478  0.73365978     0.88100
C289        C  0.20022104  0.90981551  0.87789068    -0.13100
C290        C  0.23860947  0.42146044  0.85323717     0.09000
C291        C  0.26740725  0.41768237  0.87680201    -0.13100
C292        C  0.26554871  0.41703742  0.92105708    -0.13100
C293        C  0.22820852  0.91478404  0.94328142     0.09000
C294        C  0.19813624  0.91030684  0.92179094    -0.13100
H295        H  0.17823271  0.91365557  0.85942638     0.13000
H296        H  0.29236490  0.42227979  0.85972454     0.13000
H297        H  0.28920619  0.42125218  0.93667502     0.13000
H298        H  0.17466787  0.91457149  0.93573503     0.13000
C299        C  0.23544424  0.08893701  0.57657003    -0.13100
C300        C  0.26581165  0.08601036  0.55569761     0.09000
C301        C  0.29169569  0.58704224  0.56913033    -0.13100
C302        C  0.29161305  0.58576984  0.61354468    -0.13100
C303        C  0.26034128  0.57888750  0.63826027     0.09000
C304        C  0.23275063  0.08281176  0.62193074    -0.13100
H305        H  0.21208320  0.08716614  0.55997967     0.13000
H306        H  0.31496767  0.58491666  0.55241813     0.13000
H307        H  0.31485570  0.58293243  0.62963305     0.13000
H308        H  0.20759545  0.07709500  0.63882275     0.13000
C309        C  0.15107829  0.50440332  0.76382331    -0.16200
C310        C  0.12658397  0.49074972  0.74090636    -0.31400
H311        H  0.14335245  0.01603210  0.79264928     0.12800
H312        H  0.13314540  0.47776222  0.71620032     0.13400
C313        C  0.37051001  0.00312380  0.75279021    -0.16200
C314        C  0.34578443  0.98857833  0.73102676    -0.31400
H315        H  0.36415348  0.01710834  0.77652078     0.12800
H316        H  0.35491666  0.48135040  0.70357853     0.13400
C317        C  0.12244954  0.49253255  0.48896376    -0.16200
C318        C  0.14417670  0.49045292  0.52058923    -0.31400
H319        H  0.13702809  0.00332663  0.45846812     0.12800
H320        H  0.14115837  0.49196286  0.05365586     0.13400
C321        C  0.36711037  0.99771311  0.00872453    -0.16200
C322        C  0.34632180  0.00173598  0.97607119    -0.31400
H323        H  0.35797214  0.50126998  0.53578854     0.12800
H324        H  0.35662680  0.00699917  0.94249542     0.13400
C325        C  0.97106896  0.34367536  0.74107762    -0.16200
C326        C  0.99664108  0.37147149  0.72504041    -0.31400
H327        H  0.45223606  0.35000861  0.75475841     0.12800
H328        H  0.02150959  0.36744583  0.71496667     0.13400
C329        C  0.51471499  0.15502212  0.75825203    -0.16200
C330        C  0.49078995  0.12560338  0.77297324    -0.31400
H331        H  0.53964734  0.15338455  0.74517128     0.12800
H332        H  0.03012725  0.14852021  0.74983372     0.13400
C333        C  0.07221081  0.29246859  0.87227526    -0.13100
C334        C  0.07001849  0.26189265  0.90596953     0.09000
C335        C  0.56966253  0.30384731  0.88147628    -0.13100
C336        C  0.57082356  0.30459237  0.83722927    -0.13100
C337        C  0.05554660  0.25515369  0.82370769     0.09200
C338        C  0.06437496  0.28901334  0.83075622    -0.13100
H339        H  0.07202603  0.31758797  0.87986137     0.13000
H340        H  0.56305136  0.32612235  0.89155048     0.13000
H341        H  0.56495326  0.32740408  0.81445156     0.13000
H342        H  0.05910480  0.31170358  0.80716187     0.13000
C343        C  0.91252461  0.19777941  0.62549801    -0.13100
C344        C  0.92171536  0.23057840  0.59513750     0.09000
C345        C  0.42445115  0.25648400  0.59736157    -0.13100
C346        C  0.41584188  0.25635462  0.64036778    -0.13100
C347        C  0.89853226  0.22816351  0.67865460     0.09000
C348        C  0.89847454  0.19627099  0.66698895    -0.13100
H349        H  0.92063368  0.17472056  0.61947147     0.13000
H350        H  0.42764551  0.28107229  0.57243465     0.13000
H351        H  0.41344243  0.28114962  0.64750411     0.13000
H352        H  0.89721174  0.17214665  0.69221447     0.13000
C353        C  0.00863853  0.37436415  0.97974717    -0.16200
C354        C  0.98678878  0.34759788  0.97056765    -0.31400
H355        H  0.52652038  0.36851566  0.99146017     0.12800
H356        H  0.02498156  0.36878095  0.51530625     0.13400
C357        C  0.52299921  0.14994969  0.52122417    -0.16200
C358        C  0.49876991  0.12475341  0.51272640    -0.31400
H359        H  0.54610879  0.14300382  0.53502345     0.12800
H360        H  0.96712117  0.13119577  0.50281036     0.13400
O361        O  0.05505729  0.76779103  0.48521133    -0.74200
O362        O  0.99498505  0.74330854  0.07365857    -0.74200
O363        O  0.03372514  0.70563303  0.04060318    -0.74300
O364        O  0.01068985  0.80166155  0.51534024    -0.74300
O365        O  0.49681037  0.79876577  0.47691324    -0.74300
O366        O  0.50268899  0.70281654  0.99069214    -0.74200
O367        O  0.46523021  0.74120038  0.02478404    -0.74200
O368        O  0.53386033  0.75984618  0.44311467    -0.74300
Ni369      Ni  0.01945243  0.75452131  0.53082595     1.25400
Ni370      Ni  0.50122643  0.75228526  0.98004661     1.25400
C371        C  0.56469882  0.76454049  0.45390286     0.88000
C372        C  0.47215856  0.73845869  0.06429944     0.87900
C373        C  0.01520355  0.68735883  0.01867799     0.87900
C374        C  0.98940542  0.81069362  0.48729027     0.88100
O375        O  0.97953663  0.75474499  0.19007506    -0.74200
O376        O  0.05581369  0.77388995  0.25580082    -0.74200
O377        O  0.02740173  0.71859733  0.22445161    -0.74300
O378        O  0.00806437  0.80935137  0.22162089    -0.74300
O379        O  0.47486244  0.78158627  0.28828929    -0.74300
O380        O  0.49266967  0.68985821  0.29125956    -0.74200
O381        O  0.52152363  0.74383676  0.32487579    -0.74200
O382        O  0.44664269  0.72712730  0.25521119    -0.74300
Ni383      Ni  0.01885349  0.76491006  0.22072776     1.25400
Ni384      Ni  0.48272689  0.73486446  0.29225430     1.25400
C385        C  0.94975207  0.74011322  0.20883801     0.88000
C386        C  0.05037960  0.76518010  0.29718797     0.87900
C387        C  0.01243060  0.69193383  0.25449652     0.87900
C388        C  0.98746348  0.81272885  0.25131079     0.88100
O389        O  0.41487395  0.99272610  0.46544662    -0.80700
O390        O  0.07054078  0.99306015  0.47269063    -0.65400
O391        O  0.47226080  0.96913966  0.00422055    -1.12000
C392        C  0.50512430  0.59078737  0.01664506     1.06200
O393        O  0.08312168  0.51097434  0.02903956    -0.78600
O394        O  0.03441550  0.52230591  0.08363108    -0.66100
Ni395      Ni  0.43920123  0.95466376  0.46666635     1.34900
C396        C  0.00397727  0.50677082  0.09749689     0.85000
O397        O  0.02238250  0.93413262  0.48323563    -0.79100
O398        O  0.45994244  0.91469149  0.46627321    -0.89400
C399        C  0.08769394  0.99549635  0.99695974     0.84500
O400        O  0.46243698  0.97968129  0.41099772    -0.67600
O401        O  0.03151427  0.58451980  0.02448987    -0.86900
C402        C  0.49389710  0.99104640  0.39871298     0.85400
C403        C  0.99829693  0.90980979  0.47814009     1.06900
H404        H  0.02280391  0.54081284  0.46289986     0.38700
O405        O  0.01905812  0.52428838  0.49126181    -1.09500
O406        O  0.48034307  0.50455430  0.06930246    -0.66200
Ni407      Ni  0.47709888  0.52026226  0.00640122     1.26300
O408        O  0.01905367  0.99662836  0.42426922    -0.66400
O409        O  0.47994826  0.56816876  0.01011488    -0.78700
C410        C  0.40327629  0.50171022  0.49426251     0.84700
O411        O  0.42915974  0.51128956  0.01998145    -0.65900
Ni412      Ni  0.05559461  0.54662114  0.02647933     1.27400
Ni413      Ni  0.02256671  0.98146087  0.48694493     1.26100
H414        H  0.46817537  0.95166666  0.03180759     0.39300
O415        O  0.41871621  0.98979124  0.21666355    -0.80700
O416        O  0.07195731  0.99226844  0.22057189    -0.65400
O417        O  0.47692820  0.97230209  0.25607974    -1.12000
C418        C  0.50176646  0.58819392  0.26967057     1.06200
O419        O  0.08269019  0.51313266  0.27950751    -0.78600
O420        O  0.03288410  0.52389504  0.33320719    -0.66100
Ni421      Ni  0.44332217  0.95168053  0.22346283     1.34900
C422        C  0.00179355  0.50998291  0.34577689     0.85000
O423        O  0.02096577  0.93643224  0.22834619    -0.79100
O424        O  0.46472899  0.91143793  0.23007134    -0.89400
C425        C  0.09274874  0.99906543  0.24836534     0.84500
O426        O  0.46479895  0.97167110  0.16528943    -0.67600
O427        O  0.03207239  0.58739033  0.27477858    -0.86900
C428        C  0.49449009  0.98911749  0.15032615     0.85400
C429        C  0.99542275  0.91197636  0.22810659     1.06900
H430        H  0.02802235  0.54659081  0.21172411     0.38700
O431        O  0.02364467  0.53032030  0.24023154    -1.09500
O432        O  0.47788604  0.50278631  0.31875877    -0.66200
Ni433      Ni  0.47542478  0.51861532  0.25600724     1.26300
O434        O  0.01858480  0.99974250  0.17259710    -0.66400
O435        O  0.47718407  0.56572449  0.26164969    -0.78700
C436        C  0.40700324  0.50071046  0.24074009     0.84700
O437        O  0.42735280  0.50925080  0.26806513    -0.65900
Ni438      Ni  0.05542457  0.54894851  0.27677508     1.27400
Ni439      Ni  0.02397577  0.98337590  0.23494387     1.26100
H440        H  0.47375766  0.95659021  0.28496243     0.39300
O441        O  0.25533332  0.01741475  0.05495430    -0.74200
O442        O  0.24016001  0.94760357  0.50611417    -0.74200
O443        O  0.29392988  0.98067667  0.02049649    -0.74300
O444        O  0.19792334  0.97515079  0.04133570    -0.74300
O445        O  0.19566518  0.51300921  0.47444329    -0.74300
O446        O  0.29223729  0.52272433  0.45118930    -0.74200
O447        O  0.23583140  0.47845528  0.43850942    -0.74200
O448        O  0.25935175  0.56190112  0.98518113    -0.74300
Ni449      Ni  0.24593580  0.97639675  0.03309802     1.25400
Ni450      Ni  0.24383680  0.51940400  0.46055349     1.25400
C451        C  0.26321497  0.55642169  0.02600721     0.88000
C452        C  0.23471369  0.44724409  0.46224292     0.87900
C453        C  0.30918085  0.50603902  0.47993611     0.87900
C454        C  0.18748914  0.49885637  0.01015068     0.88100
O455        O  0.24950968  0.01876561  0.17783727    -0.74200
O456        O  0.23706800  0.94190199  0.27930798    -0.74200
O457        O  0.19666642  0.98401005  0.23624172    -0.74300
O458        O  0.29024972  0.97704793  0.22029714    -0.74300
O459        O  0.30426871  0.51586003  0.25395112    -0.74300
O460        O  0.21154567  0.52339984  0.27450719    -0.74200
O461        O  0.25286049  0.48095363  0.31417394    -0.74200
O462        O  0.26349444  0.55865796  0.21376902    -0.74300
Ni463      Ni  0.24288689  0.97908291  0.22691262     1.25400
Ni464      Ni  0.25860733  0.52103431  0.26561034     1.25400
C465        C  0.25896472  0.05069725  0.18062265     0.88000
C466        C  0.24290506  0.94934887  0.31577208     0.87900
C467        C  0.18886542  0.00444278  0.25902690     0.87900
C468        C  0.31322423  0.99553249  0.23725262     0.88100
C469        C  0.20420292  0.41468524  0.37358201    -0.13100
C470        C  0.23616610  0.92215370  0.35669845     0.09000
C471        C  0.26422220  0.91768470  0.38149663    -0.13100
C472        C  0.26205800  0.91910693  0.42505161    -0.13100
C473        C  0.23139399  0.41898626  0.43970313     0.09000
C474        C  0.20155428  0.41344742  0.41798964    -0.13100
H475        H  0.18198807  0.41764911  0.35528046     0.13000
H476        H  0.28924103  0.92046143  0.36539998     0.13000
H477        H  0.28548586  0.92279124  0.44125458     0.13000
H478        H  0.17744714  0.41576894  0.43245369     0.13000
C479        C  0.23654052  0.58840044  0.06803624    -0.13100
C480        C  0.26708673  0.58496238  0.04812046     0.09000
C481        C  0.29501638  0.08276655  0.07165627    -0.13100
C482        C  0.29512521  0.08324985  0.11556298    -0.13100
C483        C  0.26395765  0.07814307  0.13992467     0.09000
C484        C  0.23388343  0.58471962  0.11301025    -0.13100
H485        H  0.21317021  0.58538098  0.05159068     0.13000
H486        H  0.31794712  0.07916410  0.05563938     0.13000
H487        H  0.31816440  0.08009028  0.13200350     0.13000
H488        H  0.20870559  0.57942485  0.12973242     0.13000
C489        C  0.15298691  0.00746488  0.26563040    -0.16200
C490        C  0.12818934  0.99421339  0.24287122    -0.31400
H491        H  0.14706656  0.52454894  0.28786466     0.12800
H492        H  0.13429306  0.98088782  0.21831012     0.13400
C493        C  0.37177297  0.50607043  0.24500602    -0.16200
C494        C  0.34676952  0.49198521  0.22328255    -0.31400
H495        H  0.36593504  0.52051034  0.26846924     0.12800
H496        H  0.35483635  0.97640418  0.20925458     0.13400
C497        C  0.12383317  0.99391800  0.98903587    -0.16200
C498        C  0.14519189  0.99102578  0.02103408    -0.31400
H499        H  0.13889063  0.50303311  0.95457717     0.12800
H500        H  0.13905929  0.99566067  0.55708605     0.13400
C501        C  0.36733131  0.50398499  0.50234094    -0.16200
C502        C  0.34602466  0.50850922  0.47034556    -0.31400
H503        H  0.35715268  0.99500250  0.04192101     0.12800
H504        H  0.35572957  0.51379490  0.43651996     0.13400
C505        C  0.98019859  0.84762716  0.25005836    -0.16200
C506        C  0.00231485  0.87699934  0.22929055    -0.31400
H507        H  0.45894033  0.84452315  0.27354067     0.12800
H508        H  0.02681480  0.87532452  0.21496973     0.13400
C509        C  0.52034702  0.65158380  0.26203419    -0.16200
C510        C  0.49514167  0.62289618  0.27161898    -0.31400
H511        H  0.54575120  0.64976114  0.25080832     0.12800
H512        H  0.96916698  0.62972301  0.27693489     0.13400
C513        C  0.08435990  0.74613786  0.39931457    -0.13100
C514        C  0.07469196  0.77467634  0.41170815     0.09000
C515        C  0.59318493  0.80105984  0.38601302    -0.13100
C516        C  0.58601217  0.79835698  0.34395268    -0.13100
C517        C  0.07721259  0.77433082  0.32484542     0.09200
C518        C  0.08569589  0.74598646  0.35537557    -0.13100
H519        H  0.08381932  0.72153759  0.42341478     0.13000
H520        H  0.59196363  0.82566731  0.39443563     0.13000
H521        H  0.58032478  0.82109546  0.32086487     0.13000
H522        H  0.08593540  0.72122336  0.34686111     0.13000
C523        C  0.93153155  0.69918221  0.12719384    -0.13100
C524        C  0.93637434  0.73108968  0.09512200     0.09000
C525        C  0.43190849  0.75768164  0.10871076    -0.13100
C526        C  0.42235533  0.75562199  0.15211357    -0.13100
C527        C  0.92309782  0.73117554  0.18078271     0.09000
C528        C  0.92331751  0.69891240  0.17036726    -0.13100
H529        H  0.93957271  0.67637827  0.12026809     0.13000
H530        H  0.43465612  0.78278849  0.08484800     0.13000
H531        H  0.41903208  0.77962138  0.16073710     0.13000
H532        H  0.92607714  0.67603845  0.19564545     0.13000
C533        C  0.00604805  0.87426038  0.48321438    -0.16200
C534        C  0.98320102  0.84701850  0.47665668    -0.31400
H535        H  0.47202953  0.85492561  0.45952706     0.12800
H536        H  0.03403796  0.87071788  0.00714395     0.13400
C537        C  0.52413918  0.65120163  0.02482417    -0.16200
C538        C  0.50004945  0.62715265  0.01369886    -0.31400
H539        H  0.54655886  0.64321980  0.03956906     0.12800
H540        H  0.97137417  0.63209713  0.00053831     0.13400
O541        O  0.07150328  0.76562094  0.98917300    -0.74200
O542        O  0.98144903  0.74032436  0.57317012    -0.74200
O543        O  0.02579472  0.70655127  0.54202968    -0.74300
O544        O  0.03353355  0.80372633  0.02308075    -0.74300
O545        O  0.50257280  0.80184785  0.97372197    -0.74300
O546        O  0.49627798  0.69952003  0.49434978    -0.74200
O547        O  0.45856431  0.73866146  0.52758697    -0.74200
O548        O  0.53946551  0.76352742  0.93864909    -0.74300
Ni549      Ni  0.03463659  0.75467510  0.03358403     1.25400
Ni550      Ni  0.49510923  0.74909409  0.48357945     1.25400
C551        C  0.57046487  0.76883825  0.94870109     0.88000
C552        C  0.46514423  0.73679684  0.56708824     0.87900
C553        C  0.00944496  0.68474314  0.52235389     0.87900
C554        C  0.01544242  0.81859585  0.99451686     0.88100
O555        O  0.98174803  0.74835996  0.69574516    -0.74200
O556        O  0.05741881  0.76985672  0.76185504    -0.74200
O557        O  0.03030980  0.71379922  0.73124631    -0.74300
O558        O  0.00884177  0.80424545  0.72632351    -0.74300
O559        O  0.48408721  0.78727373  0.78688660    -0.74300
O560        O  0.49941982  0.69491378  0.78834502    -0.74200
O561        O  0.53092269  0.74880078  0.82039133    -0.74200
O562        O  0.45308732  0.73320251  0.75539686    -0.74300
Ni563      Ni  0.02074037  0.75987714  0.72658973     1.25400
Ni564      Ni  0.49079958  0.74030774  0.79011197     1.25400
C565        C  0.95216061  0.73303268  0.71459224     0.88000
C566        C  0.05215562  0.76106922  0.80330022     0.87900
C567        C  0.01571683  0.68712753  0.76153839     0.87900
C568        C  0.98765294  0.80758348  0.75542921     0.88100
O569        O  0.41395427  0.98933843  0.96681714    -0.80700
O570        O  0.06651413  0.98658817  0.97063450    -0.65400
O571        O  0.47179084  0.96996882  0.50471592    -1.12000
C572        C  0.50166520  0.58852287  0.51456322     1.06200
O573        O  0.07675611  0.50409752  0.52983358    -0.78600
O574        O  0.03082800  0.52013214  0.58352784    -0.66100
Ni575      Ni  0.44020243  0.95317037  0.96610434     1.34900
C576        C  0.00052115  0.50430951  0.59753332     0.85000
O577        O  0.01480792  0.92999689  0.97828556    -0.79100
O578        O  0.46318879  0.91512172  0.96400250    -0.89400
C579        C  0.09119249  0.00261101  0.49909876     0.84500
O580        O  0.46216304  0.97972315  0.91023018    -0.67600
O581        O  0.03148490  0.58267611  0.52405186    -0.86900
C582        C  0.49317063  0.99349611  0.89740105     0.85400
C583        C  0.98950484  0.90884755  0.96879547     1.06900
H584        H  0.02693986  0.54361439  0.96235788     0.38700
O585        O  0.02344883  0.52729387  0.99084980    -1.09500
O586        O  0.47708675  0.50165643  0.56926274    -0.66200
Ni587      Ni  0.47238950  0.51723550  0.50656315     1.26300
O588        O  0.01553000  0.99443877  0.92181243    -0.66400
O589        O  0.47609873  0.56516949  0.51077439    -0.78700
C590        C  0.40835306  0.50301477  0.99301151     0.84700
O591        O  0.42450410  0.50893754  0.52132871    -0.65900
Ni592      Ni  0.05256783  0.54244124  0.52631213     1.27400
Ni593      Ni  0.01840789  0.97751482  0.98447399     1.26100
H594        H  0.46660092  0.95337496  0.53290025     0.39300
O595        O  0.41635502  0.98760247  0.71645302    -0.80700
O596        O  0.06932667  0.98598340  0.72296402    -0.65400
O597        O  0.47687140  0.97439760  0.75453276    -1.12000
C598        C  0.50612140  0.59164582  0.77021258     1.06200
O599        O  0.08120009  0.50486844  0.77932466    -0.78600
O600        O  0.03516798  0.52012971  0.83390054    -0.66100
Ni601      Ni  0.44452759  0.95241549  0.72138741     1.34900
C602        C  0.00463879  0.50490220  0.84792350     0.85000
O603        O  0.01784038  0.93129020  0.73092131    -0.79100
O604        O  0.46919553  0.91466943  0.72628245    -0.89400
C605        C  0.08952148  0.99268509  0.75136047     0.84500
O606        O  0.46524564  0.97458352  0.66311533    -0.67600
O607        O  0.03592884  0.58293976  0.77454234    -0.86900
C608        C  0.49473311  0.99274743  0.64828790     0.85400
C609        C  0.99245538  0.90732824  0.72888743     1.06900
H610        H  0.02717184  0.54141413  0.71336192     0.38700
O611        O  0.02346041  0.52483647  0.74167069    -1.09500
O612        O  0.48085018  0.50461149  0.81996388    -0.66200
Ni613      Ni  0.47713456  0.52197722  0.75761436     1.26300
O614        O  0.01722480  0.99482054  0.67331344    -0.66400
O615        O  0.48052112  0.56898923  0.76482057    -0.78700
C616        C  0.40856942  0.50604650  0.74352954     0.84700
O617        O  0.42916357  0.51355276  0.77114927    -0.65900
Ni618      Ni  0.05695220  0.54288962  0.77650762     1.27400
Ni619      Ni  0.02137844  0.97866614  0.73583654     1.26100
H620        H  0.47444630  0.95851084  0.78326434     0.39300
O621        O  0.25940519  0.02661987  0.55589689    -0.74200
O622        O  0.23659421  0.93757373  0.00625373    -0.74200
O623        O  0.29754757  0.99054374  0.51963213    -0.74300
O624        O  0.20187241  0.98446848  0.54292993    -0.74300
O625        O  0.20215863  0.51771101  0.97336859    -0.74300
O626        O  0.29801699  0.52460137  0.94915270    -0.74200
O627        O  0.24063829  0.48117229  0.93800072    -0.74200
O628        O  0.25194181  0.55822972  0.48745345    -0.74300
Ni629      Ni  0.24978374  0.98601841  0.53345392     1.25400
Ni630      Ni  0.24998142  0.52263597  0.95904705     1.25400
C631        C  0.25576815  0.55248422  0.52827869     0.88000
C632        C  0.23909301  0.45005687  0.96229917     0.87900
C633        C  0.31468388  0.50760720  0.97792477     0.87900
C634        C  0.18105205  0.49339198  0.51089888     0.88100
O635        O  0.24569525  0.01611628  0.68027514    -0.74200
O636        O  0.23391291  0.93654853  0.77885478    -0.74200
O637        O  0.19327756  0.97937938  0.73842235    -0.74300
O638        O  0.28688782  0.97352484  0.72016940    -0.74300
O639        O  0.30418681  0.51791735  0.75658639    -0.74300
O640        O  0.20976153  0.52089229  0.77475117    -0.74200
O641        O  0.25270691  0.48097926  0.81572942    -0.74200
O642        O  0.26176737  0.55833849  0.71522134    -0.74300
Ni643      Ni  0.23945931  0.97510841  0.72783255     1.25400
Ni644      Ni  0.25757980  0.52087031  0.76710750     1.25400
C645        C  0.25534640  0.04755845  0.68476860     0.88000
C646        C  0.23943013  0.94269932  0.81607464     0.87900
C647        C  0.18539848  0.99885424  0.76249026     0.87900
C648        C  0.30981520  0.99113569  0.73818518     0.88100
C649        C  0.20656857  0.41495763  0.87608060    -0.13100
C650        C  0.23241376  0.91445674  0.85608960     0.09000
C651        C  0.26031157  0.90877416  0.88076131    -0.13100
C652        C  0.25806811  0.90854700  0.92489308    -0.13100
C653        C  0.23520531  0.42129224  0.94058963     0.09000
C654        C  0.20485996  0.41506287  0.92011321    -0.13100
H655        H  0.18396043  0.41739935  0.85843508     0.13000
H656        H  0.28532901  0.91179656  0.86453772     0.13000
H657        H  0.28147128  0.91138640  0.94128702     0.13000
H658        H  0.18105534  0.41775169  0.93498009     0.13000
C659        C  0.23087579  0.58464405  0.57224042    -0.13100
C660        C  0.26048505  0.58101484  0.55039371     0.09000
C661        C  0.29584774  0.08968589  0.57743786    -0.13100
C662        C  0.29342790  0.08420930  0.62273003    -0.13100
C663        C  0.26111495  0.07630206  0.64523929     0.09000
C664        C  0.23069031  0.58308728  0.61672157    -0.13100
H665        H  0.20657176  0.58062749  0.55800941     0.13000
H666        H  0.31980740  0.08845122  0.56153569     0.13000
H667        H  0.31568949  0.07956134  0.64024207     0.13000
H668        H  0.20632356  0.57815354  0.63532868     0.13000
C669        C  0.14947348  0.00139674  0.76954898    -0.16200
C670        C  0.12490820  0.98773674  0.74686041    -0.31400
H671        H  0.14466287  0.51862675  0.78725177     0.12800
H672        H  0.13126730  0.97432052  0.72251246     0.13400
C673        C  0.37304301  0.51024559  0.74886676    -0.16200
C674        C  0.34858851  0.49601190  0.72654973    -0.31400
H675        H  0.36656592  0.52362462  0.77320218     0.12800
H676        H  0.35187266  0.97360467  0.70831680     0.13400
C677        C  0.12752011  0.00201155  0.49144770    -0.16200
C678        C  0.14881216  0.99980358  0.52347676    -0.31400
H679        H  0.13163837  0.49391416  0.45583846     0.12800
H680        H  0.13546622  0.98693739  0.05464184     0.13400
C681        C  0.37245345  0.50538866  0.00032042    -0.16200
C682        C  0.35124733  0.50908385  0.96824094    -0.31400
H683        H  0.36047653  0.00273397  0.53986270     0.12800
H684        H  0.36084343  0.51328946  0.93455770     0.13400
C685        C  0.97889615  0.84236671  0.75285541    -0.16200
C686        C  0.99957569  0.87219762  0.73014819    -0.31400
H687        H  0.46746993  0.84939513  0.77293714     0.12800
H688        H  0.02391603  0.87098324  0.71495782     0.13400
C689        C  0.52504886  0.65575655  0.75783492    -0.16200
C690        C  0.50040043  0.62679553  0.77195830    -0.31400
H691        H  0.54930522  0.65370075  0.74326023     0.12800
H692        H  0.97311464  0.62466666  0.78426604     0.13400
C693        C  0.09204544  0.80521772  0.88187121    -0.13100
C694        C  0.09158349  0.77428713  0.91463546     0.09000
C695        C  0.60138480  0.74429122  0.90140790    -0.13100
C696        C  0.59627856  0.74171131  0.85883086    -0.13100
C697        C  0.07963944  0.76919252  0.83073737     0.09200
C698        C  0.08508879  0.80248980  0.83974019    -0.13100
H699        H  0.08942396  0.82933172  0.89071993     0.13000
H700        H  0.60080753  0.72015987  0.92636874     0.13000
H701        H  0.59236177  0.71586476  0.85211261     0.13000
H702        H  0.07808827  0.82472411  0.81711980     0.13000
C703        C  0.92456641  0.68960700  0.63258423    -0.13100
C704        C  0.92447669  0.72063885  0.60035892     0.09000
C705        C  0.42943913  0.76133082  0.61012508    -0.13100
C706        C  0.42550511  0.76265540  0.65353365    -0.13100
C707        C  0.92561788  0.72322510  0.68676110     0.09000
C708        C  0.92496113  0.69086423  0.67621676    -0.13100
H709        H  0.93132456  0.66692836  0.62368841     0.13000
H710        H  0.43276488  0.78573700  0.58485953     0.13000
H711        H  0.42644228  0.78818232  0.66046820     0.13000
H712        H  0.93193435  0.66905756  0.69965316     0.13000
C713        C  0.99304644  0.87289976  0.96717533    -0.16200
C714        C  0.01600593  0.85657806  0.98928962    -0.31400
H715        H  0.47890141  0.85793707  0.95358633     0.12800
H716        H  0.95918874  0.85134203  0.46327339     0.13400
C717        C  0.51829717  0.64791660  0.52735077    -0.16200
C718        C  0.49588251  0.62452585  0.51269871    -0.31400
H719        H  0.54007280  0.63962288  0.54354727     0.12800
H720        H  0.96946033  0.62814106  0.50822048     0.13400
O721        O  0.57415546  0.26641096  0.48775043    -0.74200
O722        O  0.47580131  0.24086227  0.07370175    -0.74200
O723        O  0.51942376  0.20537914  0.04436327    -0.74300
O724        O  0.53370737  0.30262526  0.52148711    -0.74300
O725        O  0.99012836  0.29936555  0.47766970    -0.74300
O726        O  0.98441743  0.19214939  0.99893421    -0.74200
O727        O  0.94482435  0.23109916  0.02882813    -0.74200
O728        O  0.02965329  0.25985961  0.44969539    -0.74300
Ni729      Ni  0.53630198  0.25395963  0.53112086     1.25400
Ni730      Ni  0.97790825  0.23968009  0.98074681     1.25400
C731        C  0.05928686  0.26449156  0.46416179     0.88000
C732        C  0.95465807  0.23572468  0.06533186     0.87900
C733        C  0.50279312  0.18293514  0.02573494     0.87900
C734        C  0.51559613  0.31729994  0.49278520     0.88100
O735        O  0.48607074  0.24957418  0.19431448    -0.74200
O736        O  0.56215235  0.27080672  0.26039404    -0.74200
O737        O  0.53408369  0.21431774  0.23088446    -0.74300
O738        O  0.51426081  0.30576241  0.22364062    -0.74300
O739        O  0.98099775  0.28600271  0.29335092    -0.74300
O740        O  0.99832051  0.19380206  0.29693842    -0.74200
O741        O  0.02619973  0.24709693  0.33234272    -0.74200
O742        O  0.95365684  0.23221053  0.25908830    -0.74300
Ni743      Ni  0.52534000  0.26086690  0.22507878     1.25400
Ni744      Ni  0.98858829  0.23902198  0.29772334     1.25400
C745        C  0.45628681  0.23537259  0.21336460     0.88000
C746        C  0.55680475  0.26255524  0.30186187     0.87900
C747        C  0.51905181  0.18813873  0.26153123     0.87900
C748        C  0.49329004  0.30983088  0.25246069     0.88100
O749        O  0.91367926  0.49621257  0.46101807    -0.80700
O750        O  0.56527662  0.48362876  0.46936278    -0.65400
O751        O  0.97737083  0.47168383  0.00253998    -1.12000
C752        C  0.99968548  0.08669697  0.02238225     1.06200
O753        O  0.57848639  0.00733104  0.03225347    -0.78600
O754        O  0.53122476  0.02011740  0.08732045    -0.66100
Ni755      Ni  0.93719056  0.45785760  0.46104679     1.34900
C756        C  0.50145282  0.00284714  0.10185345     0.85000
O757        O  0.51273962  0.42787814  0.47860495    -0.79100
O758        O  0.95746683  0.41780782  0.45979916    -0.89400
C759        C  0.59235933  0.49843144  0.99425590     0.84500
O760        O  0.96054337  0.48338011  0.40564524    -0.67600
O761        O  0.52828285  0.08215052  0.02840923    -0.86900
C762        C  0.99195006  0.49528087  0.39350314     0.85400
C763        C  0.48732213  0.40669603  0.46950233     1.06900
H764        H  0.52532175  0.03821297  0.46505873     0.38700
O765        O  0.52138821  0.02241763  0.49388935    -1.09500
O766        O  0.97825045  0.99909256  0.07418168    -0.66200
Ni767      Ni  0.97248099  0.01588806  0.01189964     1.26300
O768        O  0.51466095  0.49149374  0.41988407    -0.66400
O769        O  0.97481005  0.06262664  0.01882770    -0.78700
C770        C  0.90509362  0.99772194  0.49690847     0.84700
O771        O  0.92463283  0.00583112  0.02748967    -0.65900
Ni772      Ni  0.55182389  0.04366492  0.02979402     1.27400
Ni773      Ni  0.51720249  0.47600195  0.48270979     1.26100
H774        H  0.97413465  0.45556055  0.03115521     0.39300
O775        O  0.91767153  0.49088215  0.21080137    -0.80700
O776        O  0.57077073  0.49045694  0.21801396    -0.65400
O777        O  0.97647882  0.47564958  0.25151577    -1.12000
C778        C  0.00663656  0.09186154  0.27484995     1.06200
O779        O  0.58267137  0.00464247  0.28418073    -0.78600
O780        O  0.53507504  0.01821532  0.33844935    -0.66100
Ni781      Ni  0.94416359  0.45410846  0.21796565     1.34900
C782        C  0.50384191  0.00515220  0.35104847     0.85000
O783        O  0.52155181  0.43374390  0.22541669    -0.79100
O784        O  0.96711899  0.41473301  0.22520577    -0.89400
C785        C  0.59136378  0.49804873  0.24553951     0.84500
O786        O  0.96614261  0.47526192  0.16007165    -0.67600
O787        O  0.53676983  0.08231986  0.28054566    -0.86900
C788        C  0.99598805  0.49277975  0.14587486     0.85400
C789        C  0.49689195  0.40912224  0.22298499     1.06900
H790        H  0.52995384  0.04231370  0.21707664     0.38700
O791        O  0.52536011  0.02563575  0.24528137    -1.09500
O792        O  0.98131108  0.00550955  0.32373829    -0.66200
Ni793      Ni  0.97822936  0.02253224  0.26117808     1.26300
O794        O  0.51864453  0.49712618  0.16948471    -0.66400
O795        O  0.98132233  0.06960841  0.26791159    -0.78700
C796        C  0.90976389  0.00581782  0.24638897     0.84700
O797        O  0.93016162  0.01406291  0.27387218    -0.65900
Ni798      Ni  0.55799556  0.04241687  0.28200414     1.27400
Ni799      Ni  0.52283388  0.48049079  0.23176060     1.26100
H800        H  0.97309004  0.46013526  0.28053067     0.39300
O801        O  0.76058345  0.52262361  0.04803871    -0.74200
O802        O  0.73932822  0.44131014  0.50101371    -0.74200
O803        O  0.79930227  0.48583786  0.01367147    -0.74300
O804        O  0.70348571  0.47925933  0.03601242    -0.74300
O805        O  0.69757484  0.00905598  0.47633864    -0.74300
O806        O  0.79367197  0.01604540  0.45136960    -0.74200
O807        O  0.73594631  0.97226585  0.44129220    -0.74200
O808        O  0.75460659  0.05831685  0.99330529    -0.74300
Ni809      Ni  0.75146989  0.48116098  0.02691687     1.25400
Ni810      Ni  0.74547800  0.01404517  0.46146120     1.25400
C811        C  0.75798021  0.05126376  0.03425626     0.88000
C812        C  0.73481110  0.94137058  0.46588807     0.87900
C813        C  0.81067700  0.99986151  0.48052799     0.87900
C814        C  0.68247591  0.99515300  0.01385999     0.88100
O815        O  0.74707148  0.52213029  0.17029644    -0.74200
O816        O  0.73749333  0.44477276  0.27109567    -0.74200
O817        O  0.69555668  0.48608977  0.23013873    -0.74300
O818        O  0.78925153  0.48104175  0.21068325    -0.74300
O819        O  0.80507479  0.01452911  0.26195083    -0.74300
O820        O  0.71098001  0.01791359  0.28065320    -0.74200
O821        O  0.75323590  0.97667166  0.32031014    -0.74200
O822        O  0.76330617  0.05607153  0.22196564    -0.74300
Ni823      Ni  0.74180401  0.48217790  0.21901713     1.25400
Ni824      Ni  0.75862547  0.01756076  0.27282138     1.25400
C825        C  0.75663652  0.55399601  0.17332643     0.88000
C826        C  0.74404953  0.45201098  0.30753035     0.87900
C827        C  0.68784621  0.50620997  0.25342241     0.87900
C828        C  0.81230631  0.49937833  0.22769252     0.88100
C829        C  0.70492204  0.90952097  0.37731314    -0.13100
C830        C  0.73952751  0.42434834  0.34807528     0.09000
C831        C  0.76831597  0.42133199  0.37187181    -0.13100
C832        C  0.76549464  0.41817600  0.41672980    -0.13100
C833        C  0.73130645  0.91248128  0.44429830     0.09000
C834        C  0.70173431  0.90725881  0.42197684    -0.13100
H835        H  0.68294322  0.91295268  0.35868812     0.13000
H836        H  0.79357166  0.42791885  0.35506095     0.13000
H837        H  0.78877186  0.42276429  0.43301918     0.13000
H838        H  0.67748232  0.90939580  0.43623585     0.13000
C839        C  0.73424271  0.08404430  0.07871707    -0.13100
C840        C  0.76350123  0.07898494  0.05757852     0.09000
C841        C  0.79657553  0.58827335  0.06628165    -0.13100
C842        C  0.79452637  0.58789054  0.11044258    -0.13100
C843        C  0.76232435  0.58166034  0.13280109     0.09000
C844        C  0.73410053  0.08355417  0.12290736    -0.13100
H845        H  0.70999674  0.08074869  0.06422460     0.13000
H846        H  0.82038771  0.58536751  0.05166283     0.13000
H847        H  0.81689399  0.58491330  0.12842926     0.13000
H848        H  0.70976839  0.07989064  0.14112403     0.13000
C849        C  0.65190366  0.50845687  0.26119196    -0.16200
C850        C  0.62694313  0.49395354  0.23972222    -0.31400
H851        H  0.64618772  0.01638722  0.29327944     0.12800
H852        H  0.63300994  0.48023022  0.21556685     0.13400
C853        C  0.87405575  0.00938677  0.25159619    -0.16200
C854        C  0.84958490  0.99396805  0.23026935    -0.31400
H855        H  0.86746806  0.02325172  0.27534398     0.12800
H856        H  0.85407948  0.48080726  0.19895473     0.13400
C857        C  0.62849843  0.49730474  0.98547407    -0.16200
C858        C  0.65031559  0.49432014  0.01687736    -0.31400
H859        H  0.63408306  0.99904937  0.95794982     0.12800
H860        H  0.63501479  0.48583132  0.55261178     0.13400
C861        C  0.86872627  0.99911377  0.50359996    -0.16200
C862        C  0.84756338  0.00204201  0.47127951    -0.31400
H863        H  0.86154656  0.49829872  0.03487896     0.12800
H864        H  0.85744989  0.00626183  0.43771817     0.13400
C865        C  0.48469011  0.34470195  0.24888178    -0.16200
C866        C  0.50489615  0.37431450  0.22491095    -0.31400
H867        H  0.96482702  0.34886485  0.27757415     0.12800
H868        H  0.52914505  0.37319298  0.20941061     0.13400
C869        C  0.02624963  0.15523223  0.26828627    -0.16200
C870        C  0.00074947  0.12675998  0.27747012    -0.31400
H871        H  0.05154550  0.15315060  0.25699435     0.12800
H872        H  0.47531490  0.12643050  0.28490146     0.13400
C873        C  0.60074979  0.24512748  0.40112648    -0.13100
C874        C  0.59585839  0.27548763  0.41362147     0.09000
C875        C  0.09294045  0.23994218  0.42022913    -0.13100
C876        C  0.08886040  0.23799685  0.37721062    -0.13100
C877        C  0.58429971  0.27050268  0.32947114     0.09200
C878        C  0.59347351  0.24208584  0.35920287    -0.13100
H879        H  0.60142230  0.22118175  0.42583683     0.13000
H880        H  0.09115156  0.21546840  0.44502378     0.13000
H881        H  0.08474463  0.21232516  0.36999321     0.13000
H882        H  0.58955538  0.21620787  0.35257878     0.13000
C883        C  0.41915838  0.19156982  0.13367335    -0.13100
C884        C  0.41895680  0.22256235  0.10141863     0.09000
C885        C  0.92620705  0.26172053  0.11381672    -0.13100
C886        C  0.92926762  0.26375763  0.15685119    -0.13100
C887        C  0.42889876  0.22683346  0.18603393     0.09000
C888        C  0.42478501  0.19384961  0.17626523    -0.13100
H889        H  0.42291994  0.16794174  0.12441366     0.13000
H890        H  0.92784234  0.28602255  0.08876490     0.13000
H891        H  0.93291789  0.28946805  0.16393858     0.13000
H892        H  0.43211911  0.17175653  0.19876526     0.13000
C893        C  0.49076508  0.37055136  0.46831959    -0.16200
C894        C  0.51493863  0.35496062  0.48857848    -0.31400
H895        H  0.97063824  0.35848077  0.45078573     0.12800
H896        H  0.45447976  0.35083654  0.96135092     0.13400
C897        C  0.01341579  0.14709978  0.03353213    -0.16200
C898        C  0.99175063  0.12147644  0.02172219    -0.31400
H899        H  0.03696160  0.14185823  0.04759389     0.12800
H900        H  0.46420636  0.12482937  0.01151741     0.13400
O901        O  0.54913525  0.26561768  0.98571798    -0.74200
O902        O  0.49569489  0.24098260  0.56990129    -0.74200
O903        O  0.53704769  0.20531641  0.53731169    -0.74300
O904        O  0.50543951  0.30089026  0.01432365    -0.74300
O905        O  0.97413270  0.28824482  0.96555119    -0.74300
O906        O  0.98941212  0.19973561  0.49773564    -0.74200
O907        O  0.94881452  0.23933336  0.52486236    -0.74200
O908        O  0.01383948  0.24913107  0.93621799    -0.74300
Ni909      Ni  0.51366249  0.25362551  0.03138715     1.25400
Ni910      Ni  0.98835628  0.24947644  0.48546692     1.25400
C911        C  0.04547748  0.25835907  0.94224441     0.88000
C912        C  0.95197619  0.23714627  0.56526664     0.87900
C913        C  0.51971855  0.18709272  0.51435709     0.87900
C914        C  0.48420468  0.30964506  0.98608736     0.88100
O915        O  0.47707576  0.25194005  0.68531261    -0.74200
O916        O  0.55086357  0.27236893  0.75451988    -0.74200
O917        O  0.52331520  0.21599280  0.72489414    -0.74300
O918        O  0.50479248  0.30807413  0.71501694    -0.74300
O919        O  0.95626787  0.28312052  0.77619779    -0.74300
O920        O  0.95884953  0.18587501  0.78881827    -0.74200
O921        O  0.99688915  0.23956005  0.81583646    -0.74200
O922        O  0.91922331  0.22932652  0.74857603    -0.74300
Ni923      Ni  0.51523180  0.26281047  0.71770035     1.25400
Ni924      Ni  0.95665284  0.23402695  0.78465807     1.25400
C925        C  0.44681192  0.23780747  0.70284247     0.88000
C926        C  0.54396961  0.26486276  0.79565614     0.87900
C927        C  0.50751506  0.19019314  0.75543143     0.87900
C928        C  0.48318065  0.31256804  0.74273586     0.88100
O929        O  0.91773973  0.48739924  0.96349624    -0.80700
O930        O  0.57112258  0.48999839  0.96785737    -0.65400
O931        O  0.96974100  0.47184306  0.49976921    -1.12000
C932        C  0.99714189  0.08903320  0.52142654     1.06200
O933        O  0.57905386  0.00275887  0.53359530    -0.78600
O934        O  0.53290367  0.02089774  0.58560146    -0.66100
Ni935      Ni  0.94523858  0.45144495  0.96744043     1.34900
C936        C  0.50244813  0.00566338  0.59986331     0.85000
O937        O  0.52054526  0.43307796  0.97871744    -0.79100
O938        O  0.96943030  0.41326000  0.97045703    -0.89400
C939        C  0.58653256  0.49288425  0.49540032     0.84500
O940        O  0.96636846  0.47475313  0.91001541    -0.67600
O941        O  0.53430457  0.08222508  0.52274534    -0.86900
C942        C  0.99656172  0.49107509  0.89609456     0.85400
C943        C  0.49544772  0.40936261  0.97470047     1.06900
H944        H  0.52184257  0.04055583  0.96687699     0.38700
O945        O  0.51899054  0.02393838  0.99513213    -1.09500
O946        O  0.97748721  0.00227890  0.57374755    -0.66200
Ni947      Ni  0.97344402  0.01783155  0.51084189     1.26300
O948        O  0.51943585  0.49641784  0.91996842    -0.66400
O949        O  0.97332242  0.06511651  0.51484737    -0.78700
C950        C  0.90377985  0.00004303  0.99943963     0.84700
O951        O  0.92531520  0.00616952  0.52445459    -0.65900
Ni952      Ni  0.55498925  0.04146804  0.52801953     1.27400
Ni953      Ni  0.52326165  0.48073079  0.98254917     1.26100
H954        H  0.96458711  0.45447988  0.52730926     0.39300
O955        O  0.91760703  0.49266447  0.71348638    -0.80700
O956        O  0.57051380  0.49168146  0.71570538    -0.65400
O957        O  0.97487306  0.47181997  0.75202663    -1.12000
C958        C  0.00849757  0.09168697  0.76435302     1.06200
O959        O  0.58295095  0.01575974  0.77954730    -0.78600
O960        O  0.53289238  0.02348555  0.83606250    -0.66100
Ni961      Ni  0.94100151  0.45384403  0.71784183     1.34900
C962        C  0.50217251  0.00842352  0.84945669     0.85000
O963        O  0.51919150  0.43601936  0.72285528    -0.79100
O964        O  0.96146574  0.41337241  0.72152830    -0.89400
C965        C  0.59135206  0.49865905  0.74338766     0.84500
O966        O  0.96256881  0.47507818  0.66016182    -0.67600
O967        O  0.52898186  0.08659263  0.77918700    -0.86900
C968        C  0.99289007  0.49066140  0.64580882     0.85400
C969        C  0.49346826  0.41211554  0.72126730     1.06900
H970        H  0.52554500  0.04719839  0.71487450     0.38700
O971        O  0.52215500  0.03054418  0.74312071    -1.09500
O972        O  0.97875253  0.00594330  0.82055440    -0.66200
Ni973      Ni  0.97689882  0.02082251  0.75755175     1.26300
O974        O  0.51720240  0.49983867  0.66806039    -0.66400
O975        O  0.98200777  0.06938317  0.76014577    -0.78700
C976        C  0.90802267  0.00550964  0.74251305     0.84700
O977        O  0.92890906  0.01457188  0.76905659    -0.65900
Ni978      Ni  0.55397641  0.04976792  0.77919883     1.27400
Ni979      Ni  0.52251381  0.48286963  0.73023659     1.26100
H980        H  0.97125714  0.45529339  0.78037152     0.39300
O981        O  0.75428682  0.52067919  0.55106707    -0.74200
O982        O  0.74238387  0.44199123  0.00055847    -0.74200
O983        O  0.79478343  0.48660121  0.51529991    -0.74300
O984        O  0.69829922  0.47602395  0.53787273    -0.74300
O985        O  0.69761139  0.01545211  0.97807815    -0.74300
O986        O  0.79380408  0.02295155  0.95539996    -0.74200
O987        O  0.73671216  0.98100868  0.94035598    -0.74200
O988        O  0.75517691  0.05387716  0.48635930    -0.74300
Ni989      Ni  0.74666347  0.47982434  0.52866302     1.25400
Ni990      Ni  0.74562437  0.02078095  0.96447100     1.25400
C991        C  0.75960150  0.04920542  0.52695462     0.88000
C992        C  0.73502666  0.94927549  0.96275915     0.87900
C993        C  0.81014521  0.00522808  0.98393466     0.87900
C994        C  0.68322846  0.99047360  0.51346615     0.88100
O995        O  0.74880593  0.52362534  0.67207166    -0.74200
O996        O  0.73767262  0.44544994  0.77180626    -0.74200
O997        O  0.69623242  0.48691780  0.72983840    -0.74300
O998        O  0.79040028  0.48254634  0.71347433    -0.74300
O999        O  0.80594799  0.02459582  0.75162009    -0.74300
O1000       O  0.71295486  0.03278287  0.76954516    -0.74200
O1001       O  0.75377758  0.99046401  0.81117059    -0.74200
O1002       O  0.76572070  0.06728240  0.70921622    -0.74300
Ni1003     Ni  0.74281064  0.48333926  0.72024505     1.25400
Ni1004     Ni  0.76014598  0.03017518  0.76187068     1.25400
C1005       C  0.75779582  0.55537075  0.67571830     0.88000
C1006       C  0.74315437  0.45218952  0.80871739     0.87900
C1007       C  0.68777984  0.50667070  0.75316752     0.87900
C1008       C  0.81290302  0.50061104  0.73151484     0.88100
C1009       C  0.70505411  0.92303234  0.87085902    -0.13100
C1010       C  0.73803303  0.42404501  0.84878098     0.09000
C1011       C  0.76688998  0.41899402  0.87173026    -0.13100
C1012       C  0.76510810  0.41565082  0.91665889    -0.13100
C1013       C  0.73168945  0.92218564  0.93843361     0.09000
C1014       C  0.70202893  0.91820960  0.91602403    -0.13100
H1015       H  0.68295056  0.92709562  0.85273493     0.13000
H1016       H  0.79178986  0.42424529  0.85429614     0.13000
H1017       H  0.78882332  0.41881574  0.93236243     0.13000
H1018       H  0.67777622  0.91932869  0.93128596     0.13000
C1019       C  0.73666132  0.08665310  0.56578820    -0.13100
C1020       C  0.76561008  0.07883093  0.54723963     0.09000
C1021       C  0.79325798  0.58630002  0.56740390    -0.13100
C1022       C  0.79378833  0.58794776  0.61088444    -0.13100
C1023       C  0.76279805  0.58328415  0.63545776     0.09000
C1024       C  0.73670356  0.09080086  0.60832089    -0.13100
H1025       H  0.71243416  0.08242158  0.55143442     0.13000
H1026       H  0.81600129  0.58218886  0.55150142     0.13000
H1027       H  0.81692670  0.58496253  0.62717043     0.13000
H1028       H  0.71244122  0.08935134  0.62553192     0.13000
C1029       C  0.65164725  0.50867619  0.75998088    -0.16200
C1030       C  0.62707690  0.49486461  0.73733942    -0.31400
H1031       H  0.64808099  0.03273628  0.78321701     0.12800
H1032       H  0.63354055  0.48191710  0.71254321     0.13400
C1033       C  0.87330842  0.01256155  0.74568164    -0.16200
C1034       C  0.84838489  0.99917085  0.72329919    -0.31400
H1035       H  0.86772937  0.02758065  0.76858491     0.12800
H1036       H  0.85499476  0.48343924  0.70198035     0.13400
C1037       C  0.62271151  0.49150856  0.48735219    -0.16200
C1038       C  0.64444546  0.48966739  0.51893684    -0.31400
H1039       H  0.63300027  0.99027020  0.46002389     0.12800
H1040       H  0.64103128  0.48994116  0.05071843     0.13400
C1041       C  0.86776943  0.00198750  0.00737560    -0.16200
C1042       C  0.84695530  0.00743837  0.97495408    -0.31400
H1043       H  0.85750517  0.50248623  0.53624429     0.12800
H1044       H  0.85709962  0.01357291  0.94119674     0.13400
C1045       C  0.47624326  0.34787329  0.73959610    -0.16200
C1046       C  0.49978051  0.37695327  0.72165188    -0.31400
H1047       H  0.94734297  0.34788994  0.75464483     0.12800
H1048       H  0.52491555  0.37473121  0.70992626     0.13400
C1049       C  0.97750498  0.13956452  0.76623756    -0.16200
C1050       C  0.00648118  0.12900045  0.75883775    -0.31400
H1051       H  0.95426671  0.12024446  0.77899979     0.12800
H1052       H  0.46485071  0.12730766  0.78212853     0.13400
C1053       C  0.57714458  0.24326926  0.89863119    -0.13100
C1054       C  0.56820889  0.27165532  0.91216430     0.09000
C1055       C  0.07146505  0.22993101  0.89531108    -0.13100
C1056       C  0.06285527  0.22616693  0.85417889    -0.13100
C1057       C  0.57008752  0.27302444  0.82467308     0.09200
C1058       C  0.57816511  0.24399038  0.85442613    -0.13100
H1059       H  0.57640485  0.21829503  0.92208880     0.13000
H1060       H  0.07077124  0.20619572  0.92098286     0.13000
H1061       H  0.05643213  0.19988243  0.84889003     0.13000
H1062       H  0.57806747  0.21951159  0.84503983     0.13000
C1063       C  0.43173887  0.19598667  0.62133461    -0.13100
C1064       C  0.43661586  0.22772905  0.58900093     0.09000
C1065       C  0.91011810  0.25976983  0.60318447    -0.13100
C1066       C  0.89674129  0.25792138  0.64511630    -0.13100
C1067       C  0.42114036  0.22814508  0.67394171     0.09000
C1068       C  0.42242149  0.19585782  0.66412941    -0.13100
H1069       H  0.44057495  0.17335294  0.61509264     0.13000
H1070       H  0.91635130  0.28518702  0.57968036     0.13000
H1071       H  0.89416753  0.28236270  0.65310199     0.13000
H1072       H  0.42510217  0.17325006  0.68986574     0.13000
C1073       C  0.50198814  0.37329759  0.98020191    -0.16200
C1074       C  0.47849447  0.34621327  0.97447986    -0.31400
H1075       H  0.03286294  0.36998955  0.99245826     0.12800
H1076       H  0.53339629  0.36950073  0.50554372     0.13400
C1077       C  0.01010127  0.14826265  0.53483948    -0.16200
C1078       C  0.98941577  0.12436654  0.51899428    -0.31400
H1079       H  0.03127944  0.14057843  0.55300909     0.12800
H1080       H  0.47479794  0.13117009  0.50129710     0.13400
O1081       O  0.57169179  0.76285956  0.49333596    -0.74200
O1082       O  0.50305523  0.74380321  0.07507326    -0.74200
O1083       O  0.54125793  0.70684164  0.03973551    -0.74300
O1084       O  0.53427514  0.80153397  0.52744161    -0.74300
O1085       O  0.97270556  0.78845598  0.46857656    -0.74300
O1086       O  0.99620121  0.70139446  0.99037228    -0.74200
O1087       O  0.95822960  0.74073704  0.02213559    -0.74200
O1088       O  0.01731715  0.75505638  0.43781527    -0.74300
Ni1089     Ni  0.53514504  0.75229346  0.53791989     1.25400
Ni1090     Ni  0.99509226  0.75109609  0.97874587     1.25400
C1091       C  0.04794899  0.76568032  0.44688040     0.88000
C1092       C  0.96436857  0.73837744  0.06183177     0.87900
C1093       C  0.52217782  0.68867297  0.01815422     0.87900
C1094       C  0.51564235  0.81638078  0.49955232     0.88100
O1095       O  0.48354208  0.75029640  0.19649046    -0.74200
O1096       O  0.55783874  0.76770600  0.26573101    -0.74200
O1097       O  0.52988944  0.71325667  0.23296697    -0.74300
O1098       O  0.51134038  0.80450297  0.22924964    -0.74300
O1099       O  0.97295644  0.78628990  0.28196003    -0.74300
O1100       O  0.99168335  0.69515624  0.28417576    -0.74200
O1101       O  0.02076370  0.74996783  0.31614266    -0.74200
O1102       O  0.94418835  0.73141302  0.25024125    -0.74300
Ni1103     Ni  0.52186416  0.75975571  0.22895418     1.25400
Ni1104     Ni  0.98126011  0.73989318  0.28547721     1.25400
C1105       C  0.45338544  0.73571240  0.21396218     0.88000
C1106       C  0.55166099  0.75821704  0.30702388     0.87900
C1107       C  0.51393949  0.68656567  0.26222189     0.87900
C1108       C  0.48989019  0.80801125  0.25790339     0.88100
O1109       O  0.91574183  0.98789674  0.46433810    -0.80700
O1110       O  0.56699532  0.98241524  0.47548297    -0.65400
O1111       O  0.97125904  0.97025729  0.00202832    -1.12000
C1112       C  0.00120407  0.58951739  0.01766188     1.06200
O1113       O  0.58283527  0.50792721  0.02761298    -0.78600
O1114       O  0.53487471  0.52055931  0.08216773    -0.66100
Ni1115     Ni  0.94356812  0.95226271  0.46786416     1.34900
C1116       C  0.50397389  0.50653970  0.09546314     0.85000
O1117       O  0.51422911  0.92712500  0.48449780    -0.79100
O1118       O  0.96784086  0.91416160  0.47090892    -0.89400
C1119       C  0.58837426  0.99753990  0.99929605     0.84500
O1120       O  0.96547068  0.97665909  0.41097570    -0.67600
O1121       O  0.53482130  0.58415098  0.02408955    -0.86900
C1122       C  0.99593823  0.99265459  0.39791073     0.85400
C1123       C  0.48880558  0.90633291  0.47482302     1.06900
H1124       H  0.52314933  0.53911442  0.45966825     0.38700
O1125       O  0.51933731  0.52325270  0.48845844    -1.09500
O1126       O  0.98027701  0.50300452  0.07168904    -0.66200
Ni1127     Ni  0.97614637  0.51801037  0.00873845     1.26300
O1128       O  0.51705749  0.99076922  0.42556922    -0.66400
O1129       O  0.97675103  0.56567980  0.01213886    -0.78700
C1130       C  0.90350793  0.50364160  0.49553885     0.84700
O1131       O  0.92812142  0.50683300  0.02274094    -0.65900
Ni1132     Ni  0.55700699  0.54492053  0.02552968     1.27400
Ni1133     Ni  0.51899588  0.97518782  0.48844269     1.26100
H1134       H  0.96674921  0.95282305  0.02973600     0.39300
O1135       O  0.91987998  0.99506887  0.21437569    -0.80700
O1136       O  0.57176837  0.98804466  0.22321582    -0.65400
O1137       O  0.97720506  0.97611643  0.25376601    -1.12000
C1138       C  0.00202487  0.59288945  0.26749291     1.06200
O1139       O  0.58152846  0.50801241  0.27838275    -0.78600
O1140       O  0.53217305  0.51876196  0.33290488    -0.66100
Ni1141     Ni  0.94350579  0.95636708  0.22076072     1.34900
C1142       C  0.50106080  0.50498402  0.34544589     0.85000
O1143       O  0.52103431  0.93226473  0.23136257    -0.79100
O1144       O  0.96446712  0.91603713  0.22698290    -0.89400
C1145       C  0.59237622  0.99466262  0.25126091     0.84500
O1146       O  0.96507383  0.97580905  0.16267662    -0.67600
O1147       O  0.53184745  0.58247927  0.27606137    -0.86900
C1148       C  0.99491857  0.99269142  0.14771465     0.85400
C1149       C  0.49572291  0.90754116  0.23141469     1.06900
H1150       H  0.52723711  0.54327558  0.21165413     0.38700
O1151       O  0.52288587  0.52647255  0.23978656    -1.09500
O1152       O  0.97860638  0.50790089  0.31908758    -0.66200
Ni1153     Ni  0.97612409  0.52251112  0.25623549     1.26300
O1154       O  0.51832424  0.99564900  0.17517204    -0.66400
O1155       O  0.97763547  0.56999773  0.25997390    -0.78700
C1156       C  0.90781810  0.50399459  0.24088425     0.84700
O1157       O  0.92798775  0.51316507  0.26807401    -0.65900
Ni1158     Ni  0.55482887  0.54407810  0.27676002     1.27400
Ni1159     Ni  0.52381318  0.97932554  0.23743104     1.26100
H1160       H  0.97405857  0.95992119  0.28231963     0.39300
O1161       O  0.75561740  0.01949803  0.05702124    -0.74200
O1162       O  0.73898265  0.93647955  0.50662074    -0.74200
O1163       O  0.79491423  0.98503469  0.01968212    -0.74300
O1164       O  0.69879573  0.97716392  0.04206725    -0.74300
O1165       O  0.69596492  0.51255054  0.47292486    -0.74300
O1166       O  0.79266583  0.52296532  0.45017079    -0.74200
O1167       O  0.73669927  0.47862834  0.43664536    -0.74200
O1168       O  0.75883469  0.55919621  0.98284047    -0.74300
Ni1169     Ni  0.74690115  0.97956192  0.03295661     1.25400
Ni1170     Ni  0.74421178  0.51928594  0.45921277     1.25400
C1171       C  0.76234091  0.55377422  0.02369925     0.88000
C1172       C  0.73613531  0.44741365  0.45998657     0.87900
C1173       C  0.80958471  0.50652591  0.47917054     0.87900
C1174       C  0.68694009  0.49608884  0.00698663     0.88100
O1175       O  0.74906454  0.01829091  0.18036429    -0.74200
O1176       O  0.73823710  0.93896909  0.27882540    -0.74200
O1177       O  0.69668619  0.98089818  0.23823600    -0.74300
O1178       O  0.79089092  0.97690641  0.22026032    -0.74300
O1179       O  0.80464202  0.51980973  0.25057137    -0.74300
O1180       O  0.71092903  0.52471049  0.27022264    -0.74200
O1181       O  0.75339807  0.48390371  0.31047258    -0.74200
O1182       O  0.76276835  0.56118354  0.20984961    -0.74300
Ni1183     Ni  0.74324449  0.97745366  0.22784924     1.25400
Ni1184     Ni  0.75842749  0.52375345  0.26176488     1.25400
C1185       C  0.75803218  0.04983000  0.18476498     0.88000
C1186       C  0.74384003  0.94515067  0.31600635     0.87900
C1187       C  0.68837952  0.00012926  0.26240156     0.87900
C1188       C  0.81345039  0.99528059  0.23789340     0.88100
C1189       C  0.70712393  0.41545406  0.37051069    -0.13100
C1190       C  0.73759630  0.91670721  0.35588063     0.09000
C1191       C  0.76552940  0.91163539  0.38070766    -0.13100
C1192       C  0.76212034  0.90858308  0.42553631    -0.13100
C1193       C  0.73423072  0.41967352  0.43674036     0.09000
C1194       C  0.70445283  0.41298397  0.41525351    -0.13100
H1195       H  0.68455829  0.41743119  0.35265821     0.13000
H1196       H  0.79095646  0.91672556  0.36473618     0.13000
H1197       H  0.78517151  0.91173346  0.44258769     0.13000
H1198       H  0.67996206  0.41350103  0.43041753     0.13000
C1199       C  0.73606706  0.58720741  0.06447567    -0.13100
C1200       C  0.76639293  0.58258368  0.04532283     0.09000
C1201       C  0.79465129  0.08384159  0.07668644    -0.13100
C1202       C  0.79456507  0.08367649  0.12077554    -0.13100
C1203       C  0.76328439  0.07826776  0.14502602     0.09000
C1204       C  0.73385096  0.58612303  0.10883597    -0.13100
H1205       H  0.71256275  0.58350539  0.04843021     0.13000
H1206       H  0.81761489  0.08038951  0.06057800     0.13000
H1207       H  0.81749155  0.08009512  0.13729968     0.13000
H1208       H  0.70879892  0.58177653  0.12557129     0.13000
C1209       C  0.65235233  0.00239696  0.26946646    -0.16200
C1210       C  0.62777947  0.98963518  0.24609579    -0.31400
H1211       H  0.64603760  0.52343395  0.28400711     0.12800
H1212       H  0.63410939  0.97686576  0.22105204     0.13400
C1213       C  0.87260677  0.50978924  0.24400651    -0.16200
C1214       C  0.84810915  0.49618466  0.22123329    -0.31400
H1215       H  0.86630857  0.52408900  0.26741239     0.12800
H1216       H  0.85602558  0.97899893  0.20772340     0.13400
C1217       C  0.62458982  0.99667259  0.99125845    -0.16200
C1218       C  0.64578742  0.99297382  0.02331308    -0.31400
H1219       H  0.63741412  0.49898993  0.95214464     0.12800
H1220       H  0.63780691  0.98560563  0.55765194     0.13400
C1221       C  0.86743181  0.50559452  0.50292732    -0.16200
C1222       C  0.84658295  0.50981483  0.47036577    -0.31400
H1223       H  0.85799967  0.99840719  0.04087100     0.12800
H1224       H  0.85676566  0.51533513  0.43670177     0.13400
C1225       C  0.48196282  0.84295540  0.25559656    -0.16200
C1226       C  0.50310015  0.87253443  0.23319980    -0.31400
H1227       H  0.95702261  0.84930705  0.26759126     0.12800
H1228       H  0.52745478  0.87113738  0.21822125     0.13400
C1229       C  0.01938963  0.65701755  0.25474104    -0.16200
C1230       C  0.99504612  0.62775925  0.26787051    -0.31400
H1231       H  0.04436147  0.65548349  0.24168958     0.12800
H1232       H  0.46907013  0.62534712  0.27882675     0.13400
C1233       C  0.59441946  0.73897640  0.40722977    -0.13100
C1234       C  0.59127967  0.77005942  0.41912492     0.09000
C1235       C  0.07597095  0.80640170  0.38022480    -0.13100
C1236       C  0.07775391  0.80635488  0.33622722    -0.13100
C1237       C  0.57873995  0.76489101  0.33549317     0.09200
C1238       C  0.58664123  0.73591307  0.36551602    -0.13100
H1239       H  0.59418567  0.71495464  0.43224119     0.13000
H1240       H  0.06884458  0.82881370  0.38940616     0.13000
H1241       H  0.07176337  0.82873375  0.31276867     0.13000
H1242       H  0.58150684  0.70992206  0.35919722     0.13000
C1243       C  0.44040849  0.69742646  0.12957957    -0.13100
C1244       C  0.44467836  0.72986374  0.09857273     0.09000
C1245       C  0.92532533  0.76009957  0.10444502    -0.13100
C1246       C  0.91771532  0.75977405  0.14780028    -0.13100
C1247       C  0.42782867  0.72672045  0.18456610     0.09000
C1248       C  0.43018640  0.69541665  0.17273210    -0.13100
H1249       H  0.44976539  0.67551391  0.12198098     0.13000
H1250       H  0.92854435  0.78484282  0.07979161     0.13000
H1251       H  0.91610123  0.78458251  0.15544100     0.13000
H1252       H  0.43298554  0.67223060  0.19748182     0.13000
C1253       C  0.49186607  0.87005795  0.47410442    -0.16200
C1254       C  0.51582714  0.85425842  0.49466202    -0.31400
H1255       H  0.03062332  0.86995992  0.49478332     0.12800
H1256       H  0.53871568  0.87178105  0.00963506     0.13400
C1257       C  0.01769040  0.65001346  0.02589693    -0.16200
C1258       C  0.99460221  0.62542126  0.01423144    -0.31400
H1259       H  0.04000648  0.64259759  0.04153097     0.12800
H1260       H  0.47686034  0.63462031  0.00078959     0.13400
O1261       O  0.57792528  0.76728823  0.98798354    -0.74200
O1262       O  0.49590335  0.74139202  0.57842241    -0.74200
O1263       O  0.53388121  0.70302296  0.54460427    -0.74300
O1264       O  0.54030090  0.80489550  0.02388458    -0.74300
O1265       O  0.99689557  0.80092861  0.97162222    -0.74300
O1266       O  0.98791700  0.69398282  0.49488388    -0.74200
O1267       O  0.94347886  0.72733028  0.52617539    -0.74200
O1268       O  0.03403632  0.76173317  0.93870157    -0.74300
Ni1269     Ni  0.54190731  0.75586274  0.03357159     1.25400
Ni1270     Ni  0.97908301  0.74075240  0.48006815     1.25400
C1271       C  0.06478091  0.76724688  0.94962386     0.88000
C1272       C  0.95079095  0.72952534  0.56450561     0.87900
C1273       C  0.51551216  0.68515785  0.52202905     0.87900
C1274       C  0.52138072  0.81957626  0.99628036     0.88100
O1275       O  0.48793601  0.75576209  0.69468450    -0.74200
O1276       O  0.56549748  0.77218141  0.75958049    -0.74200
O1277       O  0.53474559  0.71763612  0.72818308    -0.74300
O1278       O  0.51860031  0.80979870  0.72598087    -0.74300
O1279       O  0.97377218  0.78117647  0.78661762    -0.74300
O1280       O  0.99477408  0.69025340  0.79109941    -0.74200
O1281       O  0.02252788  0.74599073  0.82230036    -0.74200
O1282       O  0.94654420  0.72492158  0.75600291    -0.74300
Ni1283     Ni  0.52787785  0.76460152  0.72486045     1.25400
Ni1284     Ni  0.98326396  0.73484245  0.79136227     1.25400
C1285       C  0.45814940  0.74195514  0.71393348     0.88000
C1286       C  0.56060789  0.76304512  0.80106772     0.87900
C1287       C  0.51938176  0.69111970  0.75821235     0.87900
C1288       C  0.49830839  0.81353935  0.75579102     0.88100
O1289       O  0.91362807  0.99254399  0.96479256    -0.80700
O1290       O  0.56753836  0.98849062  0.97275385    -0.65400
O1291       O  0.97509228  0.97182997  0.50413343    -1.12000
C1292       C  0.00087364  0.58773487  0.52088394     1.06200
O1293       O  0.57710347  0.50377785  0.52764636    -0.78600
O1294       O  0.53143679  0.52142428  0.58021851    -0.66100
Ni1295     Ni  0.93861052  0.95540787  0.96378698     1.34900
C1296       C  0.50098795  0.50645231  0.59458792     0.85000
O1297       O  0.51763521  0.93061402  0.98035499    -0.79100
O1298       O  0.96019754  0.91643740  0.96142112    -0.89400
C1299       C  0.58832796  0.99164466  0.50141885     0.84500
O1300       O  0.96090889  0.98161819  0.90786903    -0.67600
O1301       O  0.53199866  0.58276456  0.51876909    -0.86900
C1302       C  0.99216736  0.99413115  0.89518909     0.85400
C1303       C  0.49291698  0.90864661  0.97118636     1.06900
H1304       H  0.52860714  0.54367789  0.96078815     0.38700
O1305       O  0.52434865  0.52728320  0.98919671    -1.09500
O1306       O  0.97671203  0.49984760  0.57198346    -0.66200
Ni1307     Ni  0.97205013  0.51757276  0.50964338     1.26300
O1308       O  0.51655265  0.99483830  0.92392332    -0.66400
O1309       O  0.97556237  0.56430904  0.51689269    -0.78700
C1310       C  0.90767161  0.49825295  0.99551588     0.84700
O1311       O  0.92406662  0.50896296  0.52408582    -0.65900
Ni1312     Ni  0.55299168  0.54233392  0.52262155     1.27400
Ni1313     Ni  0.51953103  0.97789477  0.98666049     1.26100
H1314       H  0.97143893  0.95542469  0.53257127     0.39300
O1315       O  0.91668025  0.99145772  0.71275942    -0.80700
O1316       O  0.57175182  0.99716655  0.71987515    -0.65400
O1317       O  0.97431957  0.97313883  0.75319820    -1.12000
C1318       C  0.00538967  0.58819516  0.77188432     1.06200
O1319       O  0.58159422  0.50789560  0.77683256    -0.78600
O1320       O  0.53531282  0.52195069  0.83227586    -0.66100
Ni1321     Ni  0.94103504  0.95309849  0.71947114     1.34900
C1322       C  0.50456803  0.50726056  0.84585544     0.85000
O1323       O  0.52462935  0.93828484  0.72934466    -0.79100
O1324       O  0.96184111  0.91223405  0.72560152    -0.89400
C1325       C  0.59265798  0.00583309  0.74657369     0.84500
O1326       O  0.96319670  0.97415720  0.66180325    -0.67600
O1327       O  0.53637428  0.58571128  0.77412744    -0.86900
C1328       C  0.99342692  0.99050386  0.64777752     0.85400
C1329       C  0.50064501  0.91255457  0.72832974     1.06900
H1330       H  0.52802867  0.54583799  0.71129308     0.38700
O1331       O  0.52409813  0.52891710  0.73934140    -1.09500
O1332       O  0.98078643  0.50107935  0.82241854    -0.66200
Ni1333     Ni  0.97654107  0.51814936  0.76015315     1.26300
O1334       O  0.51811233  0.00018139  0.67322345    -0.66400
O1335       O  0.97993101  0.56510569  0.76729595    -0.78700
C1336       C  0.90806308  0.50352673  0.74570819     0.84700
O1337       O  0.92855868  0.51003163  0.77387794    -0.65900
Ni1338     Ni  0.55735460  0.54579191  0.77521161     1.27400
Ni1339     Ni  0.52398580  0.98486617  0.73530833     1.26100
H1340       H  0.97032586  0.95772949  0.78225711     0.39300
O1341       O  0.75772754  0.01829666  0.55198998    -0.74200
O1342       O  0.73830146  0.94206008  0.00377972    -0.74200
O1343       O  0.79610318  0.98133772  0.51748917    -0.74300
O1344       O  0.70029242  0.97403411  0.54219038    -0.74300
O1345       O  0.70184977  0.51492909  0.97026345    -0.74300
O1346       O  0.79829923  0.52194674  0.94806485    -0.74200
O1347       O  0.74115542  0.47880795  0.93538819    -0.74200
O1348       O  0.75206983  0.55786379  0.48645538    -0.74300
Ni1349     Ni  0.74830653  0.97627664  0.53194145     1.25400
Ni1350     Ni  0.74999873  0.52000832  0.95674531     1.25400
C1351       C  0.75599244  0.55199530  0.52725171     0.88000
C1352       C  0.73915627  0.44760567  0.95957568     0.87900
C1353       C  0.81456406  0.50479598  0.97731661     0.87900
C1354       C  0.68131093  0.49267433  0.50922913     0.88100
O1355       O  0.74900725  0.02777275  0.67058968    -0.74200
O1356       O  0.73693721  0.95128087  0.77214333    -0.74200
O1357       O  0.69665762  0.99389266  0.73010032    -0.74300
O1358       O  0.78955511  0.98559374  0.71232378    -0.74300
O1359       O  0.80459556  0.52061455  0.75460531    -0.74300
O1360       O  0.71028270  0.52495454  0.77102630    -0.74200
O1361       O  0.75212161  0.48391708  0.81246627    -0.74200
O1362       O  0.76315010  0.56220970  0.71260990    -0.74300
Ni1363     Ni  0.74248060  0.98832605  0.71979457     1.25400
Ni1364     Ni  0.75800554  0.52427083  0.76422186     1.25400
C1365       C  0.75945983  0.05967529  0.67290078     0.88000
C1366       C  0.74345294  0.95860003  0.80849829     0.87900
C1367       C  0.68949513  0.01457784  0.75290765     0.87900
C1368       C  0.81296309  0.00353682  0.72928869     0.88100
C1369       C  0.70606876  0.41676572  0.87199959    -0.13100
C1370       C  0.73762560  0.93095658  0.84905212     0.09000
C1371       C  0.76583610  0.92533187  0.87307332    -0.13100
C1372       C  0.76256618  0.91976627  0.91832110    -0.13100
C1373       C  0.73491541  0.41907305  0.93744563     0.09000
C1374       C  0.70447139  0.41393642  0.91682589    -0.13100
H1375       H  0.68343478  0.42028521  0.85478918     0.13000
H1376       H  0.79118393  0.93117051  0.85667066     0.13000
H1377       H  0.78567665  0.92207158  0.93537944     0.13000
H1378       H  0.68071633  0.41577622  0.93267036     0.13000
C1379       C  0.73286170  0.58655826  0.56995746    -0.13100
C1380       C  0.76181277  0.58065190  0.54910639     0.09000
C1381       C  0.79673191  0.08489411  0.56613823    -0.13100
C1382       C  0.79679212  0.08947857  0.60846437    -0.13100
C1383       C  0.76556080  0.08663352  0.63167425     0.09000
C1384       C  0.73336378  0.58790057  0.61355807    -0.13100
H1385       H  0.70840227  0.58266451  0.55607761     0.13000
H1386       H  0.81946659  0.07930055  0.55201171     0.13000
H1387       H  0.81956893  0.08700195  0.62574673     0.13000
H1388       H  0.70924982  0.58488955  0.63197022     0.13000
C1389       C  0.65368992  0.01750807  0.76058303    -0.16200
C1390       C  0.62844040  0.00257980  0.73983266    -0.31400
H1391       H  0.64528564  0.52289871  0.78343750     0.12800
H1392       H  0.63430005  0.98854401  0.71592786     0.13400
C1393       C  0.87299275  0.50959709  0.74985951    -0.16200
C1394       C  0.84876470  0.49760134  0.72557164    -0.31400
H1395       H  0.86657879  0.52248951  0.77473934     0.12800
H1396       H  0.85369439  0.98312764  0.70152617     0.13400
C1397       C  0.62439231  0.98999333  0.49299809    -0.16200
C1398       C  0.64663891  0.98858567  0.52394983    -0.31400
H1399       H  0.63187478  0.49264427  0.45429773     0.12800
H1400       H  0.63597211  0.98776272  0.05708636     0.13400
C1401       C  0.87165868  0.50080277  0.00180046    -0.16200
C1402       C  0.85132786  0.50611128  0.96881221    -0.31400
H1403       H  0.85898289  0.99757354  0.53654976     0.12800
H1404       H  0.86177516  0.51136086  0.93530500     0.13400
C1405       C  0.49013522  0.84832154  0.75387262    -0.16200
C1406       C  0.50988598  0.87828677  0.73009489    -0.31400
H1407       H  0.95598343  0.84366131  0.77123364     0.12800
H1408       H  0.53403402  0.87777963  0.71381469     0.13400
C1409       C  0.02309442  0.65230862  0.76173197    -0.16200
C1410       C  0.99887293  0.62289004  0.77436101    -0.31400
H1411       H  0.04796302  0.65112515  0.74801299     0.12800
H1412       H  0.47510207  0.62924676  0.78276773     0.13400
C1413       C  0.59846646  0.80602596  0.88033122    -0.13100
C1414       C  0.59671221  0.77495617  0.91327769     0.09000
C1415       C  0.09652886  0.74396731  0.90212285    -0.13100
C1416       C  0.08920457  0.74091186  0.86024353    -0.13100
C1417       C  0.58839461  0.77045878  0.82835524     0.09200
C1418       C  0.59399321  0.80371657  0.83750212    -0.13100
H1419       H  0.59557316  0.83020450  0.88881180     0.13000
H1420       H  0.09747041  0.72008146  0.92678817     0.13000
H1421       H  0.08550351  0.71506855  0.85354099     0.13000
H1422       H  0.58825540  0.82629516  0.81416113     0.13000
C1423       C  0.43276383  0.69965983  0.63369669    -0.13100
C1424       C  0.43768860  0.73105518  0.60074192     0.09000
C1425       C  0.91534134  0.74949989  0.61260051    -0.13100
C1426       C  0.91624128  0.75095429  0.65610731    -0.13100
C1427       C  0.43073388  0.73395599  0.68644736     0.09000
C1428       C  0.42812321  0.70094616  0.67703586    -0.13100
H1429       H  0.43867322  0.67591460  0.62682755     0.13000
H1430       H  0.91485237  0.77359933  0.58807138     0.13000
H1431       H  0.91637774  0.77607272  0.66384355     0.13000
H1432       H  0.43106707  0.67817249  0.70234629     0.13000
C1433       C  0.49767277  0.87306420  0.96956085    -0.16200
C1434       C  0.52106011  0.85736395  0.99165277    -0.31400
H1435       H  0.97381243  0.85813657  0.95138789     0.12800
H1436       H  0.53462445  0.86877964  0.51123704     0.13400
C1437       C  0.01612418  0.64864467  0.53037212    -0.16200
C1438       C  0.99382270  0.62292304  0.51966943    -0.31400
H1439       H  0.03981643  0.64341064  0.54399204     0.12800
H1440       H  0.47307009  0.63204066  0.49862578     0.13400
loop_ 
_geom_bond_atom_site_label_1 
_geom_bond_atom_site_label_2 
_geom_bond_distance 
_geom_bond_site_symmetry_2 
_ccdc_geom_bond_type 
O1           Ni9   1.923       .  S
O1          C731   1.279       .  A
O2         Ni189   1.902   1_655  S
O2          C732   1.281       .  A
O3         Ni189   1.921       .  S
O3           C13   1.281       .  A
O4           Ni9   1.910       .  S
O4           C14   1.278       .  A
O5         Ni190   1.931       .  S
O5          C734   1.285       .  A
O6          Ni10   1.916       .  S
O6          C733   1.282   1_556  A
O7          Ni10   1.915   1_554  S
O7           C12   1.276       .  A
O8         Ni190   1.895       .  S
O8           C11   1.280       .  A
Ni9         O182   1.920   1_455  S
Ni9         O183   1.906       .  S
Ni9        Ni910   2.394   1_455  S
Ni10        O185   1.917       .  S
Ni10        O188   1.909       .  S
Ni10       Ni909   2.394   1_556  S
C11         O721   1.279       .  A
C11         C874   1.459       .  S
C12         O722   1.281       .  A
C12         C884   1.456       .  S
C13         O726   1.281   1_454  A
C13         C897   1.474       .  S
C14         O725   1.285   1_455  A
C14         C174   1.476       .  S
O15         Ni23   1.907   1_655  S
O15          C25   1.282       .  A
O16         Ni23   1.914       .  S
O16          C26   1.277       .  A
O17         Ni23   1.913       .  S
O17          C27   1.279       .  A
O18         Ni23   1.907       .  S
O18          C28   1.280   1_455  A
O19         Ni24   1.919       .  S
O19         C748   1.281       .  A
O20         Ni24   1.914       .  S
O20         C747   1.281       .  A
O21         Ni24   1.912       .  S
O21         C746   1.282       .  A
O22         Ni24   1.910       .  S
O22         C745   1.276       .  A
Ni23       Ni744   2.395   1_455  S
Ni24       Ni743   2.394       .  S
C25         O742   1.275       .  A
C25         C167   1.453       .  S
C26         O741   1.282       .  A
C26         C157   1.460       .  S
C27         O740   1.281   1_455  A
C27         C869   1.467       .  S
C28         O739   1.282       .  A
C28         C145   1.472       .  S
O29         Ni35   1.940       .  S
O29         C410   1.275       .  A
O30         Ni53   1.908       .  S
O30         C219   1.269       .  A
O31          H54   0.966       .  S
O31        Ni215   1.914   1_554  S
O31        Ni953   1.900   1_554  S
O31        Ni407   1.910       .  S
C32          O49   1.275       .  A
C32         O761   1.280       .  A
C32         C178   1.477       .  S
O33         Ni52   1.937       .  S
O33         C399   1.275   1_544  A
O34         Ni52   1.919       .  S
O34          C36   1.270       .  A
Ni35         O38   1.928       .  S
Ni35         O40   1.922       .  S
Ni35        O211   1.917       .  S
C36         O766   1.283   1_445  A
C36        C1148   1.500   1_445  S
O37         Ni53   1.925       .  S
O37          C43   1.282   1_455  A
O38         C763   1.277       .  A
C39         O210   1.266       .  A
C39         O393   1.275   1_556  A
C39         C137   1.472       .  S
O40          C42   1.271       .  A
O41         Ni52   1.931       .  S
O41         C752   1.280   1_455  A
C42         O768   1.277       .  A
C42        C1142   1.495       .  S
C43         O758   1.278       .  A
C43         C173   1.475       .  S
H44          O45   0.966       .  S
O45        Ni413   1.908   1_545  S
O45        Ni947   1.904   1_455  S
O45        Ni232   1.914       .  S
O46         Ni47   1.963   1_565  S
O46         C756   1.283   1_565  A
Ni47         O51   1.907       .  S
Ni47         O49   1.915       .  S
Ni47        O391   1.908   1_545  S
Ni47        O945   1.900   1_554  S
O48         Ni53   1.953       .  S
O48         C762   1.277   1_455  A
C50         O389   1.274   1_545  A
C50         O231   1.266       .  A
C50         C141   1.471       .  S
O51         C230   1.269   1_545  A
Ni52        O225   1.912   1_554  S
Ni53        O931   1.898   1_455  S
Ni53        O405   1.918       .  S
O55         Ni61   1.933       .  S
O55         C436   1.276       .  A
O56         Ni79   1.895       .  S
O56          C65   1.266       .  A
O57          H80   0.967       .  S
O57         Ni61   1.909       .  S
O57        Ni799   1.900       .  S
O57        Ni433   1.911       .  S
C58          O75   1.276       .  A
C58         O787   1.279       .  A
C58         C150   1.470       .  S
O59         Ni78   1.932       .  S
O59         C425   1.275   1_545  A
O60         Ni78   1.928       .  S
O60          C62   1.272       .  A
Ni61         O64   1.926       .  S
Ni61         O66   1.933       .  S
C62         O792   1.277   1_455  A
C62        C1122   1.498   1_445  S
O63         Ni79   1.908       .  S
O63          C69   1.272   1_455  A
O64         C789   1.277       .  A
C65         O419   1.276       .  A
C65         C130   1.471       .  S
O66          C68   1.273       .  A
O67         Ni78   1.922       .  S
O67         C778   1.278       .  A
C68         O794   1.278       .  A
C68        C1116   1.499       .  S
C69         O784   1.278       .  A
C69         C146   1.467   1_655  S
H70          O71   0.965       .  S
O71         Ni78   1.908       .  S
O71        Ni439   1.911   1_545  S
O71        Ni793   1.900   1_455  S
O72         Ni73   1.942       .  S
O72         C782   1.275       .  A
Ni73         O77   1.902       .  S
Ni73         O75   1.914       .  S
Ni73        O417   1.912   1_545  S
Ni73        O791   1.898       .  S
O74         Ni79   1.953       .  S
O74         C788   1.280   1_455  A
C76          O77   1.268       .  A
C76         O415   1.275   1_545  A
C76         C133   1.472       .  S
Ni79        O777   1.898   1_455  S
Ni79        O431   1.905       .  S
O81         Ni89   1.899       .  S
O81         C451   1.280       .  A
O82        Ni269   1.919       .  S
O82         C452   1.278       .  A
O83         Ni89   1.913       .  S
O83         C633   1.281   1_554  A
O84         Ni89   1.920       .  S
O84         C454   1.280       .  A
O85         Ni90   1.914       .  S
O85         C274   1.282       .  A
O86         Ni90   1.922       .  S
O86          C93   1.281       .  A
O87         Ni90   1.904   1_565  S
O87          C92   1.281       .  A
O88        Ni270   1.919       .  S
O88          C91   1.278   1_556  A
Ni89        O262   1.917       .  S
Ni89       Ni630   2.394   1_554  S
Ni90        O268   1.921       .  S
Ni90       Ni629   2.394   1_545  S
C91         O441   1.281       .  A
C91         C120   1.458       .  S
C92         O442   1.277       .  A
C92         C113   1.457       .  S
C93         O623   1.281   1_545  A
C93         C142   1.472       .  S
C94         O444   1.280       .  A
C94         O265   1.282   1_564  A
C94         C498   1.473       .  S
O95        Ni103   1.907       .  S
O95         C105   1.282       .  A
O96        Ni103   1.918       .  S
O96         C106   1.278       .  A
O97        Ni103   1.913       .  S
O97         C107   1.281       .  A
O98        Ni103   1.918       .  S
O98         C108   1.280       .  A
O99        Ni104   1.914       .  S
O99         C468   1.281   1_545  A
O100       Ni104   1.919       .  S
O100        C467   1.281       .  A
O101       Ni104   1.904   1_565  S
O101        C466   1.281       .  A
O102       Ni104   1.916       .  S
O102        C465   1.277       .  A
Ni103      Ni464   2.394       .  S
Ni104      Ni463   2.394   1_545  S
C105        O462   1.277       .  A
C105        C123   1.459       .  S
C106        O461   1.281       .  A
C106        C110   1.459       .  S
C107        O460   1.280       .  A
C107        C129   1.472       .  S
C108        O459   1.281       .  A
C108        C494   1.472       .  S
C109        C114   1.395       .  A
C109        C470   1.401       .  A
C109        H115   1.084       .  S
C110        C111   1.402       .  A
C110        C469   1.401       .  A
C111        C112   1.396       .  A
C111        H116   1.084       .  S
C112        C473   1.402       .  A
C112        H117   1.084       .  S
C113        C114   1.402       .  A
C113        C472   1.401       .  A
C114        H118   1.084       .  S
C119        C120   1.401       .  A
C119        C124   1.396       .  A
C119        H125   1.084       .  S
C120        C481   1.402       .  A
C121        C122   1.396       .  A
C121        C480   1.403       .  A
C121        H126   1.084       .  S
C122        C123   1.401       .  A
C122        H127   1.084       .  S
C123        C484   1.401       .  A
C124        C483   1.402       .  A
C124        H128   1.084       .  S
C129        C130   1.343       .  D
C129        H491   1.087       .  S
C130        H132   1.087       .  S
H131        C489   1.087       .  S
C133        C134   1.343   1_545  D
C133        H135   1.087       .  S
C134        C468   1.472       .  S
C134        H496   1.087       .  S
H136        C494   1.087       .  S
C137        C138   1.341   1_556  D
C137        H499   1.087       .  S
C138        C454   1.473       .  S
C138        H320   1.087       .  S
H139        C497   1.087       .  S
H140        C318   1.087       .  S
C141        C142   1.342       .  D
C141        H683   1.087       .  S
C142        H144   1.087       .  S
H143        C681   1.087       .  S
C145        C146   1.342   1_655  D
C145        H867   1.087       .  S
C146        H148   1.087       .  S
H147        C865   1.087       .  S
C149        C747   1.468       .  S
C149        C150   1.342       .  D
C149        H151   1.087       .  S
C150        H872   1.087       .  S
H152        C870   1.087   1_655  S
C153        C154   1.404       .  A
C153        C158   1.398       .  A
C153        H159   1.084       .  S
C154        C731   1.459       .  S
C154        C875   1.402       .  A
C155        C156   1.398       .  A
C155        C874   1.404       .  A
C155        H160   1.084       .  S
C156        C877   1.401       .  A
C156        H161   1.084       .  S
C157        C158   1.401       .  A
C157        C876   1.402       .  A
C158        H162   1.084       .  S
C163        C164   1.401       .  A
C163        C168   1.395       .  A
C163        H169   1.084       .  S
C164        C732   1.453       .  S
C164        C885   1.401       .  A
C165        C166   1.395       .  A
C165        C884   1.402       .  A
C165        H170   1.084       .  S
C166        C887   1.401       .  A
C166        H171   1.084       .  S
C167        C168   1.401       .  A
C167        C886   1.400       .  A
C168        H172   1.084       .  S
C173        C174   1.341   1_655  D
C173        H895   1.087       .  S
C174        H356   1.087       .  S
H175        C893   1.087       .  S
H176        C354   1.087       .  S
C177        C733   1.478       .  S
C177        C178   1.344       .  D
C177        H179   1.086       .  S
C178        H900   1.087       .  S
H180        C898   1.087       .  S
O181       Ni189   1.907   1_556  S
O181        C911   1.274       .  A
O182        C912   1.285       .  A
O183        C193   1.277       .  A
O184       Ni189   1.920       .  S
O184        C194   1.283   1_454  A
O185        C914   1.280       .  A
O186       Ni190   1.934       .  S
O186        C913   1.286       .  A
O187       Ni190   1.898       .  S
O187        C192   1.272       .  A
O188        C191   1.283       .  A
Ni189      Ni730   2.395   1_454  S
Ni190      Ni729   2.394       .  S
C191        O901   1.274       .  A
C191       C1054   1.453       .  S
C192        O902   1.285       .  A
C192       C1064   1.453       .  S
C193        O906   1.285   1_455  A
C193       C1077   1.473       .  S
C194        O905   1.279       .  A
C194        C354   1.473       .  S
O195       Ni203   1.895       .  S
O195        C205   1.281       .  A
O196       Ni203   1.896   1_455  S
O196        C206   1.272       .  A
O197       Ni203   1.926       .  S
O197        C207   1.285       .  A
O198       Ni203   1.925       .  S
O198        C208   1.282       .  A
O199       Ni204   1.913       .  S
O199        C928   1.279       .  A
O200       Ni204   1.912       .  S
O200        C927   1.280       .  A
O201       Ni204   1.906       .  S
O201        C926   1.283       .  A
O202       Ni204   1.908       .  S
O202        C925   1.275       .  A
Ni203      Ni924   2.395       .  S
Ni204      Ni923   2.397       .  S
C205        O922   1.277       .  A
C205        C347   1.460       .  S
C206        O921   1.285   1_455  A
C206        C337   1.451       .  S
C207        O920   1.277       .  A
C207       C1049   1.470       .  S
C208        O919   1.279       .  A
C208        C325   1.469       .  S
O209       Ni215   1.941       .  S
O209        C590   1.276       .  A
O210       Ni233   1.900       .  S
O211        H234   0.966       .  S
O211       Ni773   1.901       .  S
O211       Ni587   1.913       .  S
C212        O229   1.275       .  A
C212        O941   1.280       .  A
C212        C358   1.480       .  S
O213       Ni232   1.937       .  S
O213        C579   1.274       .  A
O214       Ni232   1.918       .  S
O214        C216   1.269       .  A
Ni215       O218   1.934       .  S
Ni215       O220   1.926       .  S
C216        O946   1.281   1_455  A
C216       C1328   1.499   1_445  S
O217       Ni233   1.910       .  S
O217        C223   1.274       .  A
O218        C943   1.281       .  A
C219        O573   1.274       .  A
C219        C317   1.475       .  S
O220        C222   1.271       .  A
O221       Ni232   1.929       .  S
O221        C932   1.280   1_455  A
C222        O948   1.277       .  A
C222       C1322   1.498       .  S
C223        O938   1.281   1_455  A
C223        C353   1.474       .  S
H224        O225   0.966       .  S
O225       Ni593   1.918   1_545  S
O225       Ni767   1.899   1_456  S
O226       Ni227   1.958       .  S
O226        C936   1.280       .  A
Ni227       O231   1.900       .  S
Ni227       O229   1.918       .  S
Ni227       O571   1.908   1_545  S
Ni227       O765   1.900       .  S
O228       Ni233   1.952       .  S
O228        C942   1.278   1_455  A
C230        O569   1.274   1_554  A
C230        C321   1.475       .  S
Ni233       O751   1.901   1_456  S
Ni233       O585   1.903       .  S
O235       Ni241   1.926       .  S
O235        C616   1.274       .  A
O236       Ni259   1.911       .  S
O236        C245   1.272       .  A
O237        H260   0.967       .  S
O237       Ni241   1.901       .  S
O237       Ni979   1.895       .  S
O237       Ni613   1.912       .  S
C238        O255   1.275       .  A
C238        O967   1.277       .  A
C238        C330   1.467       .  S
O239       Ni258   1.928       .  S
O239        C605   1.275   1_545  A
O240       Ni258   1.929       .  S
O240        C242   1.272       .  A
Ni241       O244   1.917       .  S
Ni241       O246   1.924       .  S
C242        O972   1.277   1_455  A
C242       C1302   1.498   1_445  S
O243       Ni259   1.929       .  S
O243        C249   1.279   1_455  A
O244        C969   1.278       .  A
C245        O599   1.275       .  A
C245        C310   1.477       .  S
O246        C248   1.271       .  A
O247       Ni258   1.917       .  S
O247        C958   1.276       .  A
C248        O974   1.282       .  A
C248       C1296   1.498       .  S
C249        O964   1.279       .  A
C249        C326   1.477       .  S
H250        O251   0.967       .  S
O251       Ni619   1.902   1_545  S
O251       Ni973   1.893   1_455  S
O251       Ni258   1.902       .  S
O252       Ni253   1.948       .  S
O252        C962   1.277       .  A
Ni253       O257   1.900       .  S
Ni253       O255   1.913       .  S
Ni253       O597   1.909   1_545  S
Ni253       O971   1.901       .  S
O254       Ni259   1.955       .  S
O254        C968   1.281   1_455  A
C256        O595   1.276       .  A
C256        O257   1.268   1_565  A
C256        C313   1.473   1_565  S
Ni259       O957   1.898   1_455  S
Ni259       O611   1.918       .  S
O261       Ni269   1.901       .  S
O261        C631   1.281       .  A
O262        C632   1.277   1_554  A
O263       Ni269   1.916       .  S
O263        C453   1.281       .  A
O264       Ni269   1.920       .  S
O264        C634   1.281       .  A
O265       Ni270   1.918       .  S
O266       Ni270   1.922       .  S
O266        C273   1.281   1_545  A
O267       Ni270   1.902   1_565  S
O267        C272   1.281       .  A
O268        C271   1.278       .  A
Ni269      Ni450   2.394       .  S
Ni270      Ni449   2.394   1_546  S
C271        O621   1.280       .  A
C271        C300   1.459       .  S
C272        O622   1.278   1_556  A
C272        C293   1.459       .  S
C273        O443   1.281   1_556  A
C273        C322   1.474   1_565  S
C274        O624   1.280   1_545  A
C274        C678   1.470   1_545  S
O275       Ni283   1.905       .  S
O275        C285   1.282       .  A
O276       Ni283   1.918       .  S
O276        C286   1.277       .  A
O277       Ni283   1.914       .  S
O277        C287   1.281       .  A
O278       Ni283   1.915       .  S
O278        C288   1.280       .  A
O279       Ni284   1.914       .  S
O279        C648   1.282   1_545  A
O280       Ni284   1.918       .  S
O280        C647   1.281   1_545  A
O281       Ni284   1.904   1_565  S
O281        C646   1.281       .  A
O282       Ni284   1.915       .  S
O282        C645   1.277       .  A
Ni283      Ni644   2.394       .  S
Ni284      Ni643   2.393   1_545  S
C285        O642   1.277       .  A
C285        C303   1.458       .  S
C286        O641   1.281       .  A
C286        C290   1.458       .  S
C287        O640   1.282       .  A
C287        C309   1.475       .  S
C288        O639   1.281       .  A
C288        C674   1.469       .  S
C289        C650   1.402       .  A
C289        C294   1.396       .  A
C289        H295   1.084       .  S
C290        C649   1.401       .  A
C290        C291   1.402       .  A
C291        C292   1.396       .  A
C291        H296   1.084       .  S
C292        C653   1.402       .  A
C292        H297   1.084       .  S
C293        C652   1.401       .  A
C293        C294   1.402       .  A
C294        H298   1.084       .  S
C299        C300   1.402       .  A
C299        C304   1.396       .  A
C299        H305   1.084       .  S
C300        C661   1.403       .  A
C301        C660   1.402       .  A
C301        C302   1.396       .  A
C301        H306   1.084       .  S
C302        C303   1.401       .  A
C302        H307   1.084       .  S
C303        C664   1.402       .  A
C304        C663   1.401       .  A
C304        H308   1.084       .  S
C309        C310   1.347       .  D
C309        H671   1.087       .  S
C310        H312   1.087       .  S
H311        C669   1.087       .  S
C313        C314   1.344   1_545  D
C313        H315   1.087       .  S
C314        C648   1.475       .  S
C314        H676   1.087       .  S
H316        C674   1.087       .  S
C317        C318   1.343       .  D
C317        H679   1.087       .  S
C318        C634   1.474       .  S
H319        C677   1.087       .  S
C321        C322   1.344   1_564  D
C321        H503   1.087       .  S
C322        H324   1.087       .  S
H323        C501   1.087       .  S
C325        C326   1.344       .  D
C325       H1047   1.087       .  S
C326        H328   1.087   1_655  S
H327       C1045   1.087       .  S
C329        C927   1.463       .  S
C329        C330   1.341       .  D
C329        H331   1.087       .  S
C330       H1052   1.087       .  S
H332       C1050   1.088       .  S
C333        C334   1.400       .  A
C333        C338   1.394       .  A
C333        H339   1.084       .  S
C334        C911   1.452       .  S
C334       C1055   1.402       .  A
C335       C1054   1.401       .  A
C335        C336   1.394       .  A
C335        H340   1.084       .  S
C336       C1057   1.401       .  A
C336        H341   1.084       .  S
C337       C1056   1.399       .  A
C337        C338   1.400       .  A
C338        H342   1.084       .  S
C343        C344   1.401       .  A
C343        C348   1.398       .  A
C343        H349   1.084       .  S
C344        C912   1.457       .  S
C344       C1065   1.401       .  A
C345       C1064   1.400       .  A
C345        C346   1.394       .  A
C345        H350   1.084       .  S
C346       C1067   1.402       .  A
C346        H351   1.084       .  S
C347       C1066   1.403       .  A
C347        C348   1.404       .  A
C348        H352   1.084       .  S
C353        C354   1.341   1_455  D
C353       H1075   1.087       .  S
H355       C1073   1.087       .  S
C357        C913   1.472       .  S
C357        C358   1.341       .  D
C357        H359   1.087       .  S
C358       H1080   1.087       .  S
H360       C1078   1.087       .  S
O361       Ni369   1.905       .  S
O361       C1091   1.274       .  A
O362       Ni549   1.915   1_655  S
O362       C1092   1.284       .  A
O363       Ni549   1.904       .  S
O363        C373   1.277       .  A
O364       Ni369   1.922       .  S
O364        C374   1.284   1_455  A
O365       Ni550   1.925       .  S
O365       C1094   1.284       .  A
O366       Ni370   1.928       .  S
O366       C1093   1.284   1_556  A
O367       Ni370   1.902   1_554  S
O367        C372   1.274       .  A
O368       Ni550   1.897       .  S
O368        C371   1.281       .  A
Ni369       O542   1.904   1_455  S
Ni369       O543   1.922       .  S
Ni369     Ni1270   2.395   1_455  S
Ni370       O545   1.924       .  S
Ni370       O548   1.898       .  S
Ni370     Ni1269   2.394   1_556  S
C371       O1081   1.277       .  A
C371       C1234   1.456       .  S
C372       O1082   1.284       .  A
C372       C1244   1.454       .  S
C373       O1086   1.285   1_454  A
C373       C1257   1.471       .  S
C374       O1085   1.279       .  A
C374        C534   1.473       .  S
O375       Ni383   1.902   1_655  S
O375        C385   1.282       .  A
O376       Ni383   1.906       .  S
O376        C386   1.275       .  A
O377       Ni383   1.913       .  S
O377        C387   1.279       .  A
O378       Ni383   1.903       .  S
O378        C388   1.280   1_455  A
O379       Ni384   1.918       .  S
O379       C1108   1.280       .  A
O380       Ni384   1.912       .  S
O380       C1107   1.280       .  A
O381       Ni384   1.914       .  S
O381       C1106   1.283       .  A
O382       Ni384   1.913       .  S
O382       C1105   1.276       .  A
Ni383     Ni1104   2.396   1_455  S
Ni384     Ni1103   2.396       .  S
C385       O1102   1.275       .  A
C385        C527   1.455       .  S
C386       O1101   1.283       .  A
C386        C517   1.454       .  S
C387       O1100   1.281   1_455  A
C387       C1229   1.465       .  S
C388       O1099   1.279       .  A
C388        C505   1.462       .  S
O389       Ni395   1.940       .  S
O390       Ni413   1.901       .  S
O390        C579   1.266   1_565  A
O391        H414   0.966       .  S
O391       Ni575   1.913   1_554  S
O391      Ni1313   1.898   1_554  S
C392        O409   1.277       .  A
C392       O1121   1.279       .  A
C392        C538   1.479       .  S
O393       Ni412   1.939       .  S
O394       Ni412   1.923       .  S
O394        C396   1.271       .  A
Ni395       O398   1.928       .  S
Ni395       O400   1.919       .  S
Ni395       O571   1.916       .  S
C396       O1126   1.280   1_455  A
C396        C788   1.503   1_455  S
O397       Ni413   1.913       .  S
O397        C403   1.276   1_455  A
O398       C1123   1.278       .  A
C399        O570   1.269       .  A
C399        C497   1.474       .  S
O400        C402   1.270       .  A
O401       Ni412   1.924       .  S
O401       C1112   1.280       .  A
C402       O1128   1.275       .  A
C402        C782   1.493   1_565  S
C403       O1118   1.281       .  A
C403        C533   1.476   1_655  S
H404        O405   0.967       .  S
O405      Ni1307   1.901   1_455  S
O405       Ni592   1.913       .  S
O406       Ni407   1.956       .  S
O406       C1116   1.279       .  A
Ni407       O411   1.899       .  S
Ni407       O409   1.920       .  S
Ni407      O1305   1.901   1_554  S
O408       Ni413   1.950       .  S
O408       C1122   1.277   1_455  A
C410        O591   1.268       .  A
C410        C501   1.475       .  S
O411        C590   1.267   1_554  A
Ni412       O585   1.910   1_554  S
Ni413      O1291   1.901   1_455  S
O415       Ni421   1.930       .  S
O416       Ni439   1.905       .  S
O416        C425   1.270       .  A
O417        H440   0.966       .  S
O417       Ni421   1.903       .  S
O417      Ni1159   1.897       .  S
C418        O435   1.275       .  A
C418       O1147   1.277       .  A
C418        C510   1.468       .  S
O419       Ni438   1.936       .  S
O420       Ni438   1.929       .  S
O420        C422   1.272       .  A
Ni421       O424   1.923       .  S
Ni421       O426   1.928       .  S
C422       O1152   1.277   1_455  A
C422        C762   1.496   1_455  S
O423       Ni439   1.911       .  S
O423        C429   1.274   1_455  A
O424       C1149   1.277       .  A
C425        C490   1.476       .  S
O426        C428   1.272       .  A
O427       Ni438   1.924       .  S
O427       C1138   1.278       .  A
C428       O1154   1.282       .  A
C428        C756   1.500   1_565  S
C429       O1144   1.278       .  A
C429        C506   1.460   1_655  S
H430        O431   0.966       .  S
O431      Ni1153   1.900   1_455  S
O431       Ni438   1.911       .  S
O432       Ni433   1.948       .  S
O432       C1142   1.277       .  A
Ni433       O437   1.897       .  S
Ni433       O435   1.914       .  S
Ni433      O1151   1.899       .  S
O434       Ni439   1.958       .  S
O434       C1148   1.283   1_455  A
C436        O437   1.267       .  A
C436        C493   1.470       .  S
Ni439      O1137   1.893   1_455  S
O441       Ni449   1.901   1_545  S
O442       Ni629   1.916       .  S
O443       Ni449   1.916       .  S
O444       Ni449   1.919       .  S
O445       Ni450   1.918       .  S
O445        C634   1.282       .  A
O446       Ni450   1.924       .  S
O446        C453   1.282       .  A
O447       Ni450   1.900       .  S
O447        C452   1.281       .  A
O448       Ni630   1.920       .  S
O448        C451   1.278   1_556  A
Ni449       O622   1.919       .  S
Ni450       O628   1.918       .  S
C451        C480   1.458       .  S
C452        C473   1.458       .  S
C453        C502   1.475       .  S
C454        O625   1.282   1_554  A
O455       Ni463   1.904   1_545  S
O455        C465   1.281       .  A
O456       Ni463   1.916       .  S
O456        C466   1.277       .  A
O457       Ni463   1.915       .  S
O457        C467   1.281   1_565  A
O458       Ni463   1.917       .  S
O458        C468   1.281       .  A
O459       Ni464   1.909       .  S
O460       Ni464   1.917       .  S
O461       Ni464   1.906       .  S
O462       Ni464   1.916       .  S
C465        C483   1.458       .  S
C466        C470   1.457       .  S
C467        C489   1.474       .  S
C469        C474   1.396       .  A
C469        H475   1.084       .  S
C470        C471   1.402       .  A
C471        C472   1.395       .  A
C471        H476   1.084       .  S
C472        H477   1.084       .  S
C473        C474   1.403       .  A
C474        H478   1.084       .  S
C479        C480   1.402       .  A
C479        C484   1.396       .  A
C479        H485   1.084       .  S
C481        C482   1.396       .  A
C481        H486   1.084       .  S
C482        C483   1.401       .  A
C482        H487   1.084       .  S
C484        H488   1.084       .  S
C489        C490   1.345   1_545  D
C490        H492   1.087       .  S
C493        C494   1.343       .  D
C493        H495   1.087       .  S
C497        C498   1.342   1_556  D
C498        H680   1.087       .  S
H500        C678   1.087       .  S
C501        C502   1.344       .  D
C502        H504   1.087       .  S
C505        C506   1.339   1_655  D
C505       H1227   1.087       .  S
C506        H508   1.087       .  S
H507       C1225   1.087       .  S
C509       C1107   1.463       .  S
C509        C510   1.341       .  D
C509        H511   1.087       .  S
C510       H1232   1.087       .  S
H512       C1230   1.087       .  S
C513        C514   1.400       .  A
C513        C518   1.393       .  A
C513        H519   1.084       .  S
C514       C1091   1.452       .  S
C514       C1235   1.400       .  A
C515       C1234   1.403       .  A
C515        C516   1.396       .  A
C515        H520   1.084       .  S
C516       C1237   1.400       .  A
C516        H521   1.084       .  S
C517       C1236   1.402       .  A
C517        C518   1.400       .  A
C518        H522   1.084       .  S
C523        C524   1.400       .  A
C523        C528   1.394       .  A
C523        H529   1.084       .  S
C524       C1092   1.453       .  S
C524       C1245   1.400       .  A
C525       C1244   1.400       .  A
C525        C526   1.395       .  A
C525        H530   1.084       .  S
C526       C1247   1.403       .  A
C526        H531   1.084       .  S
C527       C1246   1.403       .  A
C527        C528   1.401       .  A
C528        H532   1.084       .  S
C533        C534   1.343   1_455  D
C533       H1255   1.087       .  S
C534        H716   1.087       .  S
H535       C1253   1.087       .  S
H536        C714   1.087   1_554  S
C537       C1093   1.472       .  S
C537        C538   1.344       .  D
C537        H539   1.087       .  S
C538       H1260   1.087       .  S
H540       C1258   1.087       .  S
O541       Ni549   1.920   1_556  S
O541       C1271   1.278       .  A
O542       C1272   1.281       .  A
O543        C553   1.281       .  A
O544       Ni549   1.909       .  S
O544        C554   1.278   1_554  A
O545       C1274   1.284       .  A
O546       Ni550   1.929       .  S
O546       C1273   1.284       .  A
O547       Ni550   1.905       .  S
O547        C552   1.274       .  A
O548        C551   1.280       .  A
Ni549     Ni1090   2.394   1_454  S
Ni550     Ni1089   2.394       .  S
C551       O1261   1.278       .  A
C551       C1414   1.458       .  S
C552       O1262   1.284       .  A
C552       C1424   1.454       .  S
C553       O1266   1.281   1_455  A
C553       C1437   1.473       .  S
C554       O1265   1.285   1_455  A
C554        C714   1.476       .  S
O555       Ni563   1.906   1_655  S
O555        C565   1.282       .  A
O556       Ni563   1.910       .  S
O556        C566   1.276       .  A
O557       Ni563   1.914       .  S
O557        C567   1.279       .  A
O558       Ni563   1.910       .  S
O558        C568   1.281   1_455  A
O559       Ni564   1.916       .  S
O559       C1288   1.280       .  A
O560       Ni564   1.914       .  S
O560       C1287   1.281       .  A
O561       Ni564   1.910       .  S
O561       C1286   1.283       .  A
O562       Ni564   1.910       .  S
O562       C1285   1.276       .  A
Ni563     Ni1284   2.395   1_455  S
Ni564     Ni1283   2.395       .  S
C565       O1282   1.276       .  A
C565        C707   1.456       .  S
C566       O1281   1.283       .  A
C566        C697   1.458       .  S
C567       O1280   1.281   1_455  A
C567       C1409   1.468       .  S
C568       O1279   1.281       .  A
C568        C685   1.474       .  S
O569       Ni575   1.936       .  S
O570       Ni593   1.907       .  S
O571        H594   0.965       .  S
O571      Ni1133   1.901       .  S
C572        O589   1.277       .  A
C572       O1301   1.280       .  A
C572        C718   1.481       .  S
O573       Ni592   1.936       .  S
O574       Ni592   1.918       .  S
O574        C576   1.270       .  A
Ni575       O578   1.924       .  S
Ni575       O580   1.921       .  S
C576       O1306   1.282   1_455  A
C576        C968   1.497   1_455  S
O577       Ni593   1.927       .  S
O577        C583   1.282   1_455  A
O578       C1303   1.277       .  A
C579        C677   1.471       .  S
O580        C582   1.270       .  A
O581       Ni592   1.931       .  S
O581       C1292   1.279       .  A
C582       O1308   1.277       .  A
C582        C962   1.499   1_565  S
C583       O1298   1.277       .  A
C583        C713   1.476       .  S
H584        O585   0.967       .  S
O585      Ni1127   1.900   1_456  S
O586       Ni587   1.960       .  S
O586       C1296   1.282       .  A
Ni587       O591   1.905       .  S
Ni587       O589   1.922       .  S
Ni587      O1125   1.900       .  S
O588       Ni593   1.952       .  S
O588       C1302   1.277   1_455  A
C590        C681   1.471   1_556  S
Ni593      O1111   1.898   1_456  S
O595       Ni601   1.935       .  S
O596       Ni619   1.901       .  S
O596        C605   1.269       .  A
O597        H620   0.966       .  S
O597       Ni601   1.907       .  S
O597      Ni1339   1.900       .  S
C598        O615   1.277       .  A
C598       O1327   1.278       .  A
C598        C690   1.472       .  S
O599       Ni618   1.929       .  S
O600       Ni618   1.926       .  S
O600        C602   1.272       .  A
Ni601       O604   1.923       .  S
Ni601       O606   1.932       .  S
C602       O1332   1.279   1_455  A
C602        C942   1.496   1_455  S
O603       Ni619   1.908       .  S
O603        C609   1.271   1_455  A
O604       C1329   1.278       .  A
C605        C670   1.471       .  S
O606        C608   1.273       .  A
O607       Ni618   1.924       .  S
O607       C1318   1.278       .  A
C608       O1334   1.279   1_565  A
C608        C936   1.500   1_565  S
C609       O1324   1.278       .  A
C609        C686   1.469       .  S
H610        O611   0.966       .  S
O611      Ni1333   1.899   1_455  S
O611       Ni618   1.906       .  S
O612       Ni613   1.950       .  S
O612       C1322   1.278       .  A
Ni613       O617   1.902       .  S
Ni613       O615   1.919       .  S
Ni613      O1331   1.898       .  S
O614       Ni619   1.953       .  S
O614       C1328   1.280   1_455  A
C616        O617   1.268       .  A
C616        C673   1.470       .  S
Ni619      O1317   1.902   1_455  S
O621       Ni629   1.897   1_545  S
O623       Ni629   1.912       .  S
O624       Ni629   1.917       .  S
O625       Ni630   1.914       .  S
O626       Ni630   1.920       .  S
O626        C633   1.280       .  A
O627       Ni630   1.902       .  S
O627        C632   1.281       .  A
O628        C631   1.277       .  A
C631        C660   1.457       .  S
C632        C653   1.458       .  S
C633        C682   1.472       .  S
O635       Ni643   1.909   1_545  S
O635        C645   1.282       .  A
O636       Ni643   1.919       .  S
O636        C646   1.278       .  A
O637       Ni643   1.912       .  S
O637        C647   1.281       .  A
O638       Ni643   1.919       .  S
O638        C648   1.281       .  A
O639       Ni644   1.913       .  S
O640       Ni644   1.920       .  S
O641       Ni644   1.904       .  S
O642       Ni644   1.916       .  S
C645        C663   1.459       .  S
C646        C650   1.459       .  S
C647        C669   1.472   1_565  S
C649        C654   1.396       .  A
C649        H655   1.084       .  S
C650        C651   1.402       .  A
C651        C652   1.396       .  A
C651        H656   1.084       .  S
C652        H657   1.084       .  S
C653        C654   1.402       .  A
C654        H658   1.084       .  S
C659        C660   1.401       .  A
C659        C664   1.395       .  A
C659        H665   1.084       .  S
C661        C662   1.397       .  A
C661        H666   1.084       .  S
C662        C663   1.401       .  A
C662        H667   1.084       .  S
C664        H668   1.084       .  S
C669        C670   1.344   1_545  D
C670        H672   1.087       .  S
C673        C674   1.343       .  D
C673        H675   1.087       .  S
C677        C678   1.341   1_545  D
C681        C682   1.341   1_554  D
C682        H684   1.087       .  S
C685        C686   1.342       .  D
C685       H1407   1.087       .  S
C686        H688   1.087   1_655  S
H687       C1405   1.087       .  S
C689       C1287   1.469       .  S
C689        C690   1.343       .  D
C689        H691   1.087       .  S
C690       H1412   1.087       .  S
H692       C1410   1.087       .  S
C693        C694   1.404       .  A
C693        C698   1.397       .  A
C693        H699   1.084       .  S
C694       C1271   1.458       .  S
C694       C1415   1.402       .  A
C695       C1414   1.402       .  A
C695        C696   1.395       .  A
C695        H700   1.084       .  S
C696       C1417   1.401       .  A
C696        H701   1.084       .  S
C697       C1416   1.401       .  A
C697        C698   1.400       .  A
C698        H702   1.084       .  S
C703        C704   1.402       .  A
C703        C708   1.396       .  A
C703        H709   1.084       .  S
C704       C1272   1.456       .  S
C704       C1425   1.401       .  A
C705       C1424   1.401       .  A
C705        C706   1.394       .  A
C705        H710   1.084       .  S
C706       C1427   1.402       .  A
C706        H711   1.084       .  S
C707       C1426   1.401       .  A
C707        C708   1.401       .  A
C708        H712   1.084       .  S
C713        C714   1.340   1_655  D
C713       H1435   1.087       .  S
H715       C1433   1.087       .  S
C717       C1273   1.476       .  S
C717        C718   1.344       .  D
C717        H719   1.087       .  S
C718       H1440   1.087       .  S
H720       C1438   1.087       .  S
O721       Ni729   1.923       .  S
O722       Ni909   1.901       .  S
O723       Ni909   1.923       .  S
O723        C733   1.282       .  A
O724       Ni729   1.910       .  S
O724        C734   1.278       .  A
O725       Ni910   1.928       .  S
O726       Ni730   1.909       .  S
O727       Ni730   1.911   1_554  S
O727        C732   1.276       .  A
O728       Ni910   1.895   1_455  S
O728        C731   1.280       .  A
Ni729       O902   1.918       .  S
Ni729       O903   1.904       .  S
Ni730       O905   1.912       .  S
Ni730       O908   1.903   1_655  S
C734        C894   1.477       .  S
O735       Ni743   1.911       .  S
O735        C745   1.283       .  A
O736       Ni743   1.914       .  S
O736        C746   1.277       .  A
O737       Ni743   1.915       .  S
O737        C747   1.280       .  A
O738       Ni743   1.909       .  S
O738        C748   1.280       .  A
O739       Ni744   1.922       .  S
O740       Ni744   1.916       .  S
O741       Ni744   1.911   1_455  S
O742       Ni744   1.908       .  S
C745        C887   1.457       .  S
C746        C877   1.460       .  S
C748        C865   1.470       .  S
O749       Ni755   1.935       .  S
O749       C1130   1.274       .  A
O750       Ni773   1.907       .  S
O750        C939   1.268       .  A
O751        H774   0.966       .  S
O751       Ni935   1.914   1_554  S
O751      Ni1127   1.909       .  S
C752        O769   1.274       .  A
C752        C898   1.472       .  S
O753       Ni772   1.938       .  S
O753       C1119   1.275   1_544  A
O754       Ni772   1.920       .  S
O754        C756   1.270       .  A
Ni755       O758   1.925       .  S
Ni755       O760   1.919       .  S
Ni755       O931   1.913       .  S
O757       Ni773   1.926       .  S
O757        C763   1.281       .  A
C759        O930   1.266       .  A
C759       O1113   1.275   1_556  A
C759        C857   1.474       .  S
O760        C762   1.269       .  A
O761       Ni772   1.933       .  S
C763        C893   1.479       .  S
H764        O765   0.966       .  S
O765      Ni1133   1.913   1_545  S
O765       Ni952   1.910       .  S
O766       Ni767   1.961   1_565  S
Ni767       O771   1.904       .  S
Ni767       O769   1.910       .  S
Ni767      O1111   1.907   1_545  S
O768       Ni773   1.949       .  S
C770       O1109   1.276       .  A
C770        O951   1.268   1_565  A
C770        C861   1.476       .  S
O771        C950   1.268   1_554  A
Ni772       O945   1.913   1_554  S
Ni773      O1125   1.918       .  S
O775       Ni781   1.935       .  S
O775       C1156   1.276       .  A
O776       Ni799   1.898       .  S
O776        C785   1.267       .  A
O777        H800   0.967       .  S
O777       Ni781   1.907       .  S
O777      Ni1153   1.908       .  S
C778        O795   1.276   1_455  A
C778        C870   1.472       .  S
O779       Ni798   1.934       .  S
O779       C1145   1.276   1_545  A
O780       Ni798   1.928       .  S
O780        C782   1.272       .  A
Ni781       O784   1.930       .  S
Ni781       O786   1.933       .  S
O783       Ni799   1.910       .  S
O783        C789   1.272       .  A
C785       O1139   1.275       .  A
C785        C850   1.472       .  S
O786        C788   1.273       .  A
O787       Ni798   1.926       .  S
C789        C866   1.466       .  S
H790        O791   0.966       .  S
O791      Ni1159   1.908   1_545  S
O791       Ni798   1.907       .  S
O792       Ni793   1.951       .  S
Ni793       O797   1.901       .  S
Ni793       O795   1.917       .  S
Ni793      O1137   1.910   1_545  S
O794       Ni799   1.948       .  S
C796       O1135   1.274   1_545  A
C796        O797   1.269       .  A
C796        C853   1.469       .  S
Ni799      O1151   1.906       .  S
O801       Ni809   1.903       .  S
O801       C1171   1.282       .  A
O802       Ni989   1.922       .  S
O802       C1172   1.279       .  A
O803       Ni809   1.910       .  S
O803       C1353   1.280   1_554  A
O804       Ni809   1.916       .  S
O804       C1174   1.279       .  A
O805       Ni810   1.921       .  S
O805        C994   1.283   1_545  A
O806       Ni810   1.927       .  S
O806        C813   1.282   1_545  A
O807       Ni810   1.899   1_565  S
O807        C812   1.280       .  A
O808       Ni990   1.915       .  S
O808        C811   1.277   1_556  A
Ni809       O982   1.921       .  S
Ni809     Ni1350   2.394   1_554  S
Ni810       O988   1.916       .  S
Ni810     Ni1349   2.393   1_545  S
C811       O1161   1.281       .  A
C811        C840   1.456       .  S
C812       O1162   1.279       .  A
C812        C833   1.460       .  S
C813       O1343   1.281       .  A
C813        C862   1.477   1_565  S
C814       O1164   1.280       .  A
C814        O985   1.282   1_564  A
C814       C1218   1.470       .  S
O815       Ni823   1.907       .  S
O815        C825   1.282       .  A
O816       Ni823   1.918       .  S
O816        C826   1.278       .  A
O817       Ni823   1.913       .  S
O817        C827   1.281       .  A
O818       Ni823   1.917       .  S
O818        C828   1.280       .  A
O819       Ni824   1.909       .  S
O819       C1188   1.280   1_545  A
O820       Ni824   1.916       .  S
O820       C1187   1.281       .  A
O821       Ni824   1.907   1_565  S
O821       C1186   1.282       .  A
O822       Ni824   1.916       .  S
O822       C1185   1.277       .  A
Ni823     Ni1184   2.394       .  S
Ni824     Ni1183   2.394   1_545  S
C825       O1182   1.277       .  A
C825        C843   1.458       .  S
C826       O1181   1.281       .  A
C826        C830   1.459       .  S
C827       O1180   1.281       .  A
C827        C849   1.473       .  S
C828       O1179   1.281       .  A
C828       C1214   1.473       .  S
C829       C1190   1.402       .  A
C829        C834   1.397       .  A
C829        H835   1.084       .  S
C830       C1189   1.401       .  A
C830        C831   1.402       .  A
C831        C832   1.396       .  A
C831        H836   1.084       .  S
C832       C1193   1.402       .  A
C832        H837   1.084       .  S
C833       C1192   1.402       .  A
C833        C834   1.403       .  A
C834        H838   1.084       .  S
C839        C840   1.401       .  A
C839        C844   1.395       .  A
C839        H845   1.084       .  S
C840       C1201   1.402       .  A
C841       C1200   1.402       .  A
C841        C842   1.395       .  A
C841        H846   1.084       .  S
C842        C843   1.401       .  A
C842        H847   1.084       .  S
C843       C1204   1.401       .  A
C844       C1203   1.401       .  A
C844        H848   1.084       .  S
C849        C850   1.343       .  D
C849       H1211   1.087       .  S
C850        H852   1.087       .  S
H851       C1209   1.087       .  S
C853        C854   1.343   1_545  D
C853        H855   1.087       .  S
C854       C1188   1.470       .  S
C854       H1216   1.087       .  S
H856       C1214   1.087       .  S
C857        C858   1.340   1_556  D
C857       H1219   1.087       .  S
C858       C1174   1.473       .  S
C858       H1040   1.087       .  S
H859       C1217   1.087       .  S
H860       C1038   1.087       .  S
C861        C862   1.344   1_565  D
C861       H1403   1.087       .  S
C862        H864   1.086       .  S
H863       C1401   1.087       .  S
C865        C866   1.341       .  D
C866        H868   1.087       .  S
C869        C870   1.343       .  D
C869        H871   1.087       .  S
C873        C874   1.402       .  A
C873        C878   1.396       .  A
C873        H879   1.084       .  S
C875        C876   1.396       .  A
C875        H880   1.084       .  S
C876        H881   1.084       .  S
C877        C878   1.402       .  A
C878        H882   1.084       .  S
C883        C884   1.402       .  A
C883        C888   1.396       .  A
C883        H889   1.084       .  S
C885        C886   1.393       .  A
C885        H890   1.084       .  S
C886        H891   1.084       .  S
C887        C888   1.401       .  A
C888        H892   1.084       .  S
C893        C894   1.341       .  D
C894       H1076   1.087       .  S
H896       C1074   1.086       .  S
C897        C898   1.343   1_455  D
C897        H899   1.087       .  S
O901       Ni909   1.905   1_556  S
O903        C913   1.277       .  A
O904       Ni909   1.921       .  S
O904        C914   1.283   1_554  A
O906       Ni910   1.932       .  S
O907       Ni910   1.904       .  S
O907        C912   1.274       .  A
O908        C911   1.283       .  A
C914       C1074   1.475       .  S
O915       Ni923   1.904       .  S
O915        C925   1.283       .  A
O916       Ni923   1.908       .  S
O916        C926   1.275       .  A
O917       Ni923   1.911       .  S
O917        C927   1.279       .  A
O918       Ni923   1.906       .  S
O918        C928   1.280       .  A
O919       Ni924   1.910       .  S
O920       Ni924   1.907       .  S
O921       Ni924   1.917       .  S
O922       Ni924   1.918       .  S
C925       C1067   1.455       .  S
C926       C1057   1.454       .  S
C928       C1045   1.463       .  S
O929       Ni935   1.943       .  S
O929       C1310   1.276       .  A
O930       Ni953   1.901       .  S
O931        H954   0.964       .  S
O931      Ni1307   1.905       .  S
C932        O949   1.275       .  A
C932       C1078   1.479       .  S
O933       Ni952   1.939       .  S
O933       C1299   1.276   1_545  A
O934       Ni952   1.923       .  S
O934        C936   1.271       .  A
Ni935       O938   1.932       .  S
Ni935       O940   1.922       .  S
O937       Ni953   1.912       .  S
O937        C943   1.275       .  A
C939       O1293   1.274       .  A
C939       C1037   1.474       .  S
O940        C942   1.270       .  A
O941       Ni952   1.928       .  S
C943       C1073   1.477       .  S
H944        O945   0.966       .  S
O945      Ni1313   1.918   1_545  S
O946       Ni947   1.961       .  S
Ni947       O951   1.904       .  S
Ni947       O949   1.917       .  S
Ni947      O1291   1.905   1_545  S
O948       Ni953   1.951       .  S
C950       O1289   1.274   1_545  A
C950       C1041   1.473   1_556  S
Ni953      O1305   1.906       .  S
O955       Ni961   1.929       .  S
O955       C1336   1.274       .  A
O956       Ni979   1.907       .  S
O956        C965   1.270       .  A
O957        H980   0.966       .  S
O957       Ni961   1.901       .  S
O957      Ni1333   1.911       .  S
C958        O975   1.281   1_455  A
C958       C1050   1.470       .  S
O959       Ni978   1.936       .  S
O959       C1325   1.276       .  A
O960       Ni978   1.932       .  S
O960        C962   1.273       .  A
Ni961       O964   1.919       .  S
Ni961       O966   1.922       .  S
O963       Ni979   1.915       .  S
O963        C969   1.275       .  A
C965       O1319   1.275       .  A
C965       C1030   1.475       .  S
O966        C968   1.270       .  A
O967       Ni978   1.921       .  S
C969       C1046   1.464       .  S
H970        O971   0.966       .  S
O971      Ni1339   1.906   1_545  S
O971       Ni978   1.911       .  S
O972       Ni973   1.949       .  S
Ni973       O977   1.901       .  S
Ni973       O975   1.927       .  S
Ni973      O1317   1.919   1_545  S
O974       Ni979   1.955       .  S
C976       O1315   1.275   1_545  A
C976        O977   1.268       .  A
C976       C1033   1.471       .  S
Ni979      O1331   1.912       .  S
O981       Ni989   1.903       .  S
O981       C1351   1.281       .  A
O982       C1352   1.278   1_554  A
O983       Ni989   1.912       .  S
O983       C1173   1.281       .  A
O984       Ni989   1.919       .  S
O984       C1354   1.280       .  A
O985       Ni990   1.916       .  S
O986       Ni990   1.921       .  S
O986        C993   1.281       .  A
O987       Ni990   1.897   1_565  S
O987        C992   1.280       .  A
O988        C991   1.277       .  A
Ni989     Ni1170   2.394       .  S
Ni990     Ni1169   2.394   1_546  S
C991       O1341   1.281       .  A
C991       C1020   1.458       .  S
C992       O1342   1.278   1_556  A
C992       C1013   1.457       .  S
C993       O1163   1.281   1_546  A
C993       C1042   1.473       .  S
C994       O1344   1.280       .  A
C994       C1398   1.474       .  S
O995      Ni1003   1.903       .  S
O995       C1005   1.281       .  A
O996      Ni1003   1.916       .  S
O996       C1006   1.277       .  A
O997      Ni1003   1.914       .  S
O997       C1007   1.281       .  A
O998      Ni1003   1.915       .  S
O998       C1008   1.280       .  A
O999      Ni1004   1.912       .  S
O999       C1368   1.281       .  A
O1000     Ni1004   1.920       .  S
O1000      C1367   1.281       .  A
O1001     Ni1004   1.909   1_565  S
O1001      C1366   1.282       .  A
O1002     Ni1004   1.921       .  S
O1002      C1365   1.278       .  A
Ni1003    Ni1364   2.394       .  S
Ni1004    Ni1363   2.394   1_545  S
C1005      O1362   1.277       .  A
C1005      C1023   1.458       .  S
C1006      O1361   1.282       .  A
C1006      C1010   1.458       .  S
C1007      O1360   1.281       .  A
C1007      C1029   1.474       .  S
C1008      O1359   1.281       .  A
C1008      C1394   1.471       .  S
C1009      C1370   1.401       .  A
C1009      C1014   1.396       .  A
C1009      H1015   1.084       .  S
C1010      C1369   1.401       .  A
C1010      C1011   1.402       .  A
C1011      C1012   1.396       .  A
C1011      H1016   1.084       .  S
C1012      C1373   1.402       .  A
C1012      H1017   1.084       .  S
C1013      C1372   1.402       .  A
C1013      C1014   1.403       .  A
C1014      H1018   1.084       .  S
C1019      C1020   1.401       .  A
C1019      C1024   1.396       .  A
C1019      H1025   1.084       .  S
C1020      C1381   1.402       .  A
C1021      C1380   1.402       .  A
C1021      C1022   1.395       .  A
C1021      H1026   1.084       .  S
C1022      C1023   1.401       .  A
C1022      H1027   1.084       .  S
C1023      C1384   1.402       .  A
C1024      C1383   1.403       .  A
C1024      H1028   1.084       .  S
C1029      C1030   1.345       .  D
C1029      H1391   1.087       .  S
C1030      H1032   1.087       .  S
H1031      C1389   1.087       .  S
C1033      C1034   1.343   1_545  D
C1033      H1035   1.087       .  S
C1034      C1368   1.470   1_565  S
C1034      H1396   1.087       .  S
H1036      C1394   1.087       .  S
C1037      C1038   1.342       .  D
C1037      H1399   1.087       .  S
C1038      C1354   1.473       .  S
H1039      C1397   1.087       .  S
C1041      C1042   1.343   1_554  D
C1041      H1223   1.087   1_545  S
C1042      H1044   1.087       .  S
H1043      C1221   1.087       .  S
C1045      C1046   1.340       .  D
C1046      H1048   1.087       .  S
C1049      C1050   1.336   1_655  D
C1049      H1051   1.087       .  S
C1053      C1054   1.400       .  A
C1053      C1058   1.393       .  A
C1053      H1059   1.084       .  S
C1055      C1056   1.393       .  A
C1055      H1060   1.084       .  S
C1056      H1061   1.084       .  S
C1057      C1058   1.401       .  A
C1058      H1062   1.084       .  S
C1063      C1064   1.400       .  A
C1063      C1068   1.394       .  A
C1063      H1069   1.084       .  S
C1065      C1066   1.398       .  A
C1065      H1070   1.084       .  S
C1066      H1071   1.083       .  S
C1067      C1068   1.402       .  A
C1068      H1072   1.084       .  S
C1073      C1074   1.343       .  D
C1077      C1078   1.342   1_455  D
C1077      H1079   1.087       .  S
O1081     Ni1089   1.916       .  S
O1082     Ni1269   1.916       .  S
O1083     Ni1269   1.908       .  S
O1083      C1093   1.278       .  A
O1084     Ni1089   1.914       .  S
O1084      C1094   1.279       .  A
O1085     Ni1270   1.912       .  S
O1086     Ni1090   1.932       .  S
O1087     Ni1090   1.901   1_554  S
O1087      C1092   1.273       .  A
O1088     Ni1270   1.909   1_455  S
O1088      C1091   1.283       .  A
Ni1089     O1262   1.912       .  S
Ni1089     O1263   1.912       .  S
Ni1090     O1265   1.928       .  S
Ni1090     O1268   1.896   1_655  S
C1094      C1254   1.476       .  S
O1095     Ni1103   1.900       .  S
O1095      C1105   1.282       .  A
O1096     Ni1103   1.905       .  S
O1096      C1106   1.275       .  A
O1097     Ni1103   1.911       .  S
O1097      C1107   1.279       .  A
O1098     Ni1103   1.906       .  S
O1098      C1108   1.280       .  A
O1099     Ni1104   1.914       .  S
O1100     Ni1104   1.911       .  S
O1101     Ni1104   1.907   1_455  S
O1102     Ni1104   1.910       .  S
C1105      C1247   1.455       .  S
C1106      C1237   1.456       .  S
C1108      C1225   1.468       .  S
O1109     Ni1115   1.943       .  S
O1110     Ni1133   1.904       .  S
O1110      C1299   1.267       .  A
O1111      H1134   0.968       .  S
O1111     Ni1295   1.915   1_554  S
C1112      O1129   1.277   1_455  A
C1112      C1258   1.480   1_455  S
O1113     Ni1132   1.939       .  S
O1114     Ni1132   1.923       .  S
O1114      C1116   1.271       .  A
Ni1115     O1118   1.931       .  S
Ni1115     O1120   1.926       .  S
Ni1115     O1291   1.914       .  S
O1117     Ni1133   1.921       .  S
O1117      C1123   1.280       .  A
C1119      O1290   1.267       .  A
C1119      C1217   1.470       .  S
O1120      C1122   1.271       .  A
O1121     Ni1132   1.925       .  S
C1123      C1253   1.476       .  S
H1124      O1125   0.966       .  S
O1125     Ni1312   1.912       .  S
O1126     Ni1127   1.961       .  S
Ni1127     O1131   1.902       .  S
Ni1127     O1129   1.921       .  S
O1128     Ni1133   1.948       .  S
C1130      O1311   1.268       .  A
C1130      C1221   1.473       .  S
O1131      C1310   1.268   1_554  A
Ni1132     O1305   1.912   1_554  S
O1135     Ni1141   1.925       .  S
O1136     Ni1159   1.904       .  S
O1136      C1145   1.269       .  A
O1137      H1160   0.966       .  S
O1137     Ni1141   1.899       .  S
C1138      O1155   1.274   1_455  A
C1138      C1230   1.468   1_455  S
O1139     Ni1158   1.933       .  S
O1140     Ni1158   1.925       .  S
O1140      C1142   1.272       .  A
Ni1141     O1144   1.917       .  S
Ni1141     O1146   1.925       .  S
O1143     Ni1159   1.911       .  S
O1143      C1149   1.273       .  A
C1145      C1210   1.475       .  S
O1146      C1148   1.271       .  A
O1147     Ni1158   1.920       .  S
C1149      C1226   1.465       .  S
H1150      O1151   0.966       .  S
O1151     Ni1158   1.908       .  S
O1152     Ni1153   1.947       .  S
Ni1153     O1157   1.899       .  S
Ni1153     O1155   1.911       .  S
O1154     Ni1159   1.956       .  S
C1156      O1157   1.268       .  A
C1156      C1213   1.472       .  S
O1161     Ni1169   1.902   1_545  S
O1162     Ni1349   1.923       .  S
O1163     Ni1169   1.913       .  S
O1164     Ni1169   1.917       .  S
O1165     Ni1170   1.919       .  S
O1165      C1354   1.282       .  A
O1166     Ni1170   1.922       .  S
O1166      C1173   1.281       .  A
O1167     Ni1170   1.899       .  S
O1167      C1172   1.280       .  A
O1168     Ni1350   1.916       .  S
O1168      C1171   1.277   1_556  A
Ni1169     O1342   1.920       .  S
Ni1170     O1348   1.916       .  S
C1171      C1200   1.457       .  S
C1172      C1193   1.459       .  S
C1173      C1222   1.472       .  S
C1174      O1345   1.283   1_554  A
O1175     Ni1183   1.904   1_545  S
O1175      C1185   1.281       .  A
O1176     Ni1183   1.917       .  S
O1176      C1186   1.278       .  A
O1177     Ni1183   1.916       .  S
O1177      C1187   1.281   1_565  A
O1178     Ni1183   1.917       .  S
O1178      C1188   1.280       .  A
O1179     Ni1184   1.913       .  S
O1180     Ni1184   1.918       .  S
O1181     Ni1184   1.905       .  S
O1182     Ni1184   1.915       .  S
C1185      C1203   1.457       .  S
C1186      C1190   1.460       .  S
C1187      C1209   1.473       .  S
C1189      C1194   1.397       .  A
C1189      H1195   1.084       .  S
C1190      C1191   1.402       .  A
C1191      C1192   1.397       .  A
C1191      H1196   1.084       .  S
C1192      H1197   1.084       .  S
C1193      C1194   1.403       .  A
C1194      H1198   1.084       .  S
C1199      C1200   1.402       .  A
C1199      C1204   1.395       .  A
C1199      H1205   1.084       .  S
C1201      C1202   1.395       .  A
C1201      H1206   1.084       .  S
C1202      C1203   1.402       .  A
C1202      H1207   1.084       .  S
C1204      H1208   1.084       .  S
C1209      C1210   1.345   1_545  D
C1210      H1212   1.087       .  S
C1213      C1214   1.343       .  D
C1213      H1215   1.087       .  S
C1217      C1218   1.340   1_556  D
C1218      H1400   1.087       .  S
H1220      C1398   1.087       .  S
C1221      C1222   1.344       .  D
C1222      H1224   1.087       .  S
C1225      C1226   1.341       .  D
C1226      H1228   1.087       .  S
C1229      C1230   1.341   1_455  D
C1229      H1231   1.087       .  S
C1233      C1234   1.402       .  A
C1233      C1238   1.395       .  A
C1233      H1239   1.084       .  S
C1235      C1236   1.394       .  A
C1235      H1240   1.084       .  S
C1236      H1241   1.084       .  S
C1237      C1238   1.401       .  A
C1238      H1242   1.084       .  S
C1243      C1244   1.400       .  A
C1243      C1248   1.395       .  A
C1243      H1249   1.084       .  S
C1245      C1246   1.395       .  A
C1245      H1250   1.084       .  S
C1246      H1251   1.084       .  S
C1247      C1248   1.402       .  A
C1248      H1252   1.084       .  S
C1253      C1254   1.342       .  D
C1254      H1436   1.087       .  S
H1256      C1434   1.087   1_554  S
C1257      C1258   1.343   1_455  D
C1257      H1259   1.087       .  S
O1261     Ni1269   1.920   1_556  S
O1263      C1273   1.279       .  A
O1264     Ni1269   1.915       .  S
O1264      C1274   1.279   1_554  A
O1266     Ni1270   1.909       .  S
O1267     Ni1270   1.915       .  S
O1267      C1272   1.277       .  A
O1268      C1271   1.280       .  A
C1274      C1434   1.478       .  S
O1275     Ni1283   1.905       .  S
O1275      C1285   1.283       .  A
O1276     Ni1283   1.910       .  S
O1276      C1286   1.276       .  A
O1277     Ni1283   1.917       .  S
O1277      C1287   1.280       .  A
O1278     Ni1283   1.911       .  S
O1278      C1288   1.280       .  A
O1279     Ni1284   1.922       .  S
O1280     Ni1284   1.916       .  S
O1281     Ni1284   1.913   1_455  S
O1282     Ni1284   1.912       .  S
C1285      C1427   1.456       .  S
C1286      C1417   1.457       .  S
C1288      C1405   1.468       .  S
O1289     Ni1295   1.937       .  S
O1290     Ni1313   1.901       .  S
O1291      H1314   0.967       .  S
C1292      O1309   1.273   1_455  A
C1292      C1438   1.471   1_455  S
O1293     Ni1312   1.936       .  S
O1294     Ni1312   1.918       .  S
O1294      C1296   1.269       .  A
Ni1295     O1298   1.924       .  S
Ni1295     O1300   1.923       .  S
O1297     Ni1313   1.927       .  S
O1297      C1303   1.281       .  A
C1299      C1397   1.475       .  S
O1300      C1302   1.270       .  A
O1301     Ni1312   1.929       .  S
C1303      C1433   1.476       .  S
H1304      O1305   0.966       .  S
O1306     Ni1307   1.959       .  S
Ni1307     O1311   1.906       .  S
Ni1307     O1309   1.908       .  S
O1308     Ni1313   1.955       .  S
C1310      C1401   1.473   1_556  S
O1315     Ni1321   1.932       .  S
O1316     Ni1339   1.899       .  S
O1316      C1325   1.267   1_565  A
O1317      H1340   0.966       .  S
O1317     Ni1321   1.909       .  S
C1318      O1335   1.275   1_455  A
C1318      C1410   1.471   1_455  S
O1319     Ni1338   1.930       .  S
O1320     Ni1338   1.929       .  S
O1320      C1322   1.272       .  A
Ni1321     O1324   1.932       .  S
Ni1321     O1326   1.929       .  S
O1323     Ni1339   1.912       .  S
O1323      C1329   1.273       .  A
C1325      C1390   1.474       .  S
O1326      C1328   1.272       .  A
O1327     Ni1338   1.923       .  S
C1329      C1406   1.466       .  S
H1330      O1331   0.966       .  S
O1331     Ni1338   1.906       .  S
O1332     Ni1333   1.950       .  S
Ni1333     O1337   1.904       .  S
Ni1333     O1335   1.916       .  S
O1334     Ni1339   1.950   1_545  S
C1336      O1337   1.268       .  A
C1336      C1393   1.473       .  S
O1341     Ni1349   1.905   1_545  S
O1343     Ni1349   1.913       .  S
O1344     Ni1349   1.919       .  S
O1345     Ni1350   1.922       .  S
O1346     Ni1350   1.927       .  S
O1346      C1353   1.282       .  A
O1347     Ni1350   1.897       .  S
O1347      C1352   1.280       .  A
O1348      C1351   1.277       .  A
C1351      C1380   1.457       .  S
C1352      C1373   1.458       .  S
C1353      C1402   1.475       .  S
O1355     Ni1363   1.901   1_545  S
O1355      C1365   1.281       .  A
O1356     Ni1363   1.913       .  S
O1356      C1366   1.276       .  A
O1357     Ni1363   1.913       .  S
O1357      C1367   1.281   1_565  A
O1358     Ni1363   1.916       .  S
O1358      C1368   1.280   1_565  A
O1359     Ni1364   1.916       .  S
O1360     Ni1364   1.919       .  S
O1361     Ni1364   1.906       .  S
O1362     Ni1364   1.918       .  S
C1365      C1383   1.459       .  S
C1366      C1370   1.458       .  S
C1367      C1389   1.475       .  S
C1369      C1374   1.396       .  A
C1369      H1375   1.084       .  S
C1370      C1371   1.401       .  A
C1371      C1372   1.396       .  A
C1371      H1376   1.084       .  S
C1372      H1377   1.084       .  S
C1373      C1374   1.403       .  A
C1374      H1378   1.084       .  S
C1379      C1380   1.400       .  A
C1379      C1384   1.396       .  A
C1379      H1385   1.084       .  S
C1381      C1382   1.396       .  A
C1381      H1386   1.084       .  S
C1382      C1383   1.402       .  A
C1382      H1387   1.084       .  S
C1384      H1388   1.084       .  S
C1389      C1390   1.344       .  D
C1390      H1392   1.087   1_545  S
C1393      C1394   1.344       .  D
C1393      H1395   1.087       .  S
C1397      C1398   1.341       .  D
C1401      C1402   1.343   1_554  D
C1402      H1404   1.086       .  S
C1405      C1406   1.341       .  D
C1406      H1408   1.087       .  S
C1409      C1410   1.341   1_455  D
C1409      H1411   1.087       .  S
C1413      C1414   1.403       .  A
C1413      C1418   1.396       .  A
C1413      H1419   1.084       .  S
C1415      C1416   1.396       .  A
C1415      H1420   1.084       .  S
C1416      H1421   1.084       .  S
C1417      C1418   1.401       .  A
C1418      H1422   1.084       .  S
C1423      C1424   1.400       .  A
C1423      C1428   1.395       .  A
C1423      H1429   1.084       .  S
C1425      C1426   1.395       .  A
C1425      H1430   1.084       .  S
C1426      H1431   1.084       .  S
C1427      C1428   1.401       .  A
C1428      H1432   1.084       .  S
C1433      C1434   1.342       .  D
C1437      C1438   1.342   1_455  D
C1437      H1439   1.086       .  S
