geometry optimzed in LAMMPS
_audit_creation_date              2020-11-30 
_audit_creation_method            'lammps2cif' 
_symmetry_space_group_name_H-M    'P1' 
_symmetry_Int_Tables_number       1 
_symmetry_cell_setting            triclinic 
loop_ 
_symmetry_equiv_pos_as_xyz 
  x,y,z 
_cell_length_a                    32.32995956 
_cell_length_b                    29.269484686629053 
_cell_length_c                    45.05927818694206 
_cell_angle_alpha                 91.9171325304695 
_cell_angle_beta                  95.46370037200849 
_cell_angle_gamma                 90.03371239857921 
loop_ 
_atom_site_label 
_atom_site_type_symbol 
_atom_site_fract_x 
_atom_site_fract_y 
_atom_site_fract_z 
_atom_site_charge 
N1          N  0.07499531  0.98876873  0.01343362    -0.34500
N2          N  0.51303512  0.05747714  0.00609710    -0.55000
N3          N  0.44907165  0.98694924  0.00487579    -0.34500
N4          N  0.51131100  0.41998715  0.00598219    -0.55000
C5          C  0.09934973  0.02617389  0.01965910     0.29100
C6          C  0.10129193  0.44963827  0.01839033     0.29100
C7          C  0.42751461  0.02440931  0.01272790     0.29100
C8          C  0.42542083  0.45235322  0.01302997     0.29100
C9          C  0.04487140  0.08645853  0.01380947     0.37700
C10         C  0.47877656  0.08392851  0.00252222     0.37700
C11         C  0.04603556  0.38969626  0.01189055     0.37700
C12         C  0.47723859  0.39281287  0.00208066     0.37700
C13         C  0.13948055  0.01254441  0.02887633    -0.19800
C14         C  0.14150968  0.46345647  0.02805286    -0.19800
C15         C  0.39168617  0.01089925  0.02472304    -0.19800
C16         C  0.38917634  0.46629296  0.02476457    -0.19800
C17         C  0.03179784  0.13064694  0.00794089    -0.20800
C18         C  0.48932346  0.12741863  0.99448488    -0.20800
C19         C  0.03239712  0.34502298  0.00632256    -0.20800
C20         C  0.48811855  0.34886249  0.99351392    -0.20800
C21         C  0.08678306  0.07223857  0.01609596    -0.16200
C22         C  0.08810831  0.40348941  0.01423770    -0.16200
C23         C  0.43678850  0.40618354  0.00789746    -0.16200
C24         C  0.43848078  0.07037633  0.00821075    -0.16200
H25         H  0.16612684  0.03422525  0.03547425     0.16700
H26         H  0.16789074  0.44192171  0.03432837     0.16700
H27         H  0.36811562  0.03262837  0.03320049     0.16700
H28         H  0.36522273  0.44485963  0.03226309     0.16700
H29         H  0.05066773  0.15972805  0.00347744     0.15000
H30         H  0.46888413  0.15624278  0.99030972     0.15000
H31         H  0.05087832  0.31509458  0.00211022     0.15000
H32         H  0.46787891  0.31949960  0.98889996     0.15000
H33         H  0.04481733  0.98866456  0.00314363     0.28300
H34         H  0.47485259  0.98658510  0.99271476     0.28300
N35         N  0.42348593  0.00680996  0.23451141    -0.34500
N36         N  0.98983134  0.07267997  0.24737238    -0.55000
N37         N  0.05322380  0.00347971  0.25487146    -0.34500
N38         N  0.99100288  0.43593952  0.25787602    -0.55000
C39         C  0.39927266  0.04280215  0.22609664     0.29100
C40         C  0.40315920  0.46470162  0.23095252     0.29100
C41         C  0.07666393  0.04032686  0.25027338     0.29100
C42         C  0.07688731  0.46957128  0.25410922     0.29100
C43         C  0.45165653  0.10519908  0.23575349     0.37700
C44         C  0.02316499  0.10000810  0.25502285     0.37700
C45         C  0.45600435  0.40495432  0.24357769     0.37700
C46         C  0.02537043  0.41046818  0.26425529     0.37700
C47         C  0.36142310  0.02692441  0.21261408    -0.19800
C48         C  0.36641817  0.47842884  0.21539564    -0.19800
C49         C  0.11577285  0.02644578  0.24349929    -0.19800
C50         C  0.11504773  0.48262301  0.24537432    -0.19800
C51         C  0.46375152  0.15005549  0.24292007    -0.20800
C52         C  0.01050413  0.14408745  0.26145507    -0.20800
C53         C  0.46851930  0.36149561  0.25193969    -0.20800
C54         C  0.01448488  0.36743634  0.27281033    -0.20800
C55         C  0.41001768  0.08961056  0.23109829    -0.16200
C56         C  0.41436447  0.41867377  0.23642965    -0.16200
C57         C  0.06608091  0.42439498  0.26005156    -0.16200
C58         C  0.06482036  0.08617569  0.25427196    -0.16200
H59         H  0.33558596  0.04705764  0.20331033     0.16700
H60         H  0.34226338  0.45682862  0.20409488     0.16700
H61         H  0.14169892  0.04779812  0.23911088     0.16700
H62         H  0.14084022  0.46085898  0.24067503     0.16700
H63         H  0.44403212  0.17898491  0.24707143     0.15000
H64         H  0.02997138  0.17359435  0.26776135     0.15000
H65         H  0.44899792  0.33254490  0.25554926     0.15000
H66         H  0.03502866  0.33927862  0.27866357     0.15000
H67         H  0.45170515  0.00873634  0.24776553     0.28300
H68         H  0.02474537  0.00390537  0.26379244     0.28300
O69         O  0.17668074  0.18044732  0.01055433    -0.76400
C70         C  0.26815136  0.24227421  0.07598455     0.84700
O71         O  0.21196949  0.33916318  0.47527922    -0.77500
O72         O  0.34699113  0.29594831  0.01037540    -0.79000
O73         O  0.31408132  0.14762703  0.47640319    -0.78800
O74         O  0.21205720  0.14584880  0.47633928    -0.77400
Zn75       Zn  0.21217477  0.23770585  0.01728440     1.55700
O76         O  0.34697758  0.17863037  0.01090292    -0.78800
Cd77       Cd  0.26131885  0.18606008  0.46768417     1.59700
Cd78       Cd  0.26077946  0.29647806  0.46616172     1.59600
O79         O  0.25508786  0.19919206  0.42260403    -0.78800
O80         O  0.25848689  0.23587590  0.99254796    -1.89300
Cd81       Cd  0.31271859  0.23771988  0.01852597     1.59900
O82         O  0.25448417  0.27526320  0.42104975    -0.78700
O83         O  0.30191524  0.24098338  0.06346885    -0.77400
C84         C  0.17805082  0.32760221  0.99223442     0.85200
C85         C  0.17759248  0.14461902  0.99369584     0.84800
O86         O  0.23282081  0.24115133  0.06082845    -0.76300
C87         C  0.34679029  0.15254673  0.49428311     0.85600
O88         O  0.17705101  0.29412775  0.00957932    -0.76400
C89         C  0.25291485  0.23574717  0.40799286     0.85700
C90         C  0.34472561  0.33571633  0.49456280     0.86100
O91         O  0.31363938  0.33656845  0.47494317    -0.78900
O92         O  0.14825293  0.30871276  0.21599421    -0.76400
C93         C  0.23652325  0.25067643  0.15631259     0.84700
O94         O  0.17493274  0.16925641  0.25727541    -0.77500
O95         O  0.31886651  0.19648810  0.22896960    -0.79000
O96         O  0.28102361  0.35650356  0.25625172    -0.78800
O97         O  0.17614893  0.34429452  0.25765957    -0.77400
Zn98       Zn  0.18541502  0.25474233  0.20995696     1.55700
O99         O  0.32065115  0.31248014  0.22914713    -0.78800
Cd100      Cd  0.23320291  0.31291071  0.26483489     1.59700
Cd101      Cd  0.23205069  0.20236340  0.26607981     1.59600
O102        O  0.24148402  0.29938080  0.30973812    -0.78800
O103        O  0.23343462  0.25577732  0.23951066    -1.89300
Cd104      Cd  0.28493196  0.25438062  0.21836447     1.59900
O105        O  0.23881322  0.22339285  0.31114671    -0.78700
O106        O  0.27114564  0.25140892  0.17241708    -0.77400
C107        C  0.14651334  0.17239571  0.23571420     0.85200
C108        C  0.14680065  0.33888959  0.23684687     0.84800
O109        O  0.20199241  0.25216556  0.16777445    -0.76300
C110        C  0.31391160  0.34994663  0.24316599     0.85600
O111        O  0.14865755  0.20104013  0.21531586    -0.76400
C112        C  0.24233882  0.26278665  0.32426607     0.85700
C113        C  0.31249825  0.16125724  0.24385563     0.86100
O114        O  0.28059478  0.15751302  0.25832984    -0.78900
C115        C  0.24836522  0.23113087  0.37497043    -0.14300
C116        C  0.24734964  0.26726952  0.35727478    -0.29500
H117        H  0.24583508  0.19681391  0.36497552     0.14700
H118        H  0.25006094  0.30156835  0.36728111     0.15300
C119        C  0.27017798  0.24531594  0.10895662    -0.14300
C120        C  0.23561713  0.24775747  0.12345122    -0.29500
H121        H  0.30060127  0.24571866  0.12149458     0.14700
H122        H  0.20526859  0.24736519  0.11079700     0.15300
C123        C  0.09978233  0.39025852  0.26155705    -0.14300
C124        C  0.10975225  0.36798273  0.23677096    -0.26900
H125        H  0.11876563  0.38701647  0.28260109     0.14700
H126        H  0.09012154  0.37130020  0.21599288     0.15300
C127        C  0.38167417  0.38236421  0.23300189    -0.14300
C128        C  0.34517084  0.38700428  0.24486338    -0.29500
H129        H  0.38898378  0.35007940  0.22212159     0.14700
H130        H  0.33856879  0.41846436  0.25699387     0.15300
C131        C  0.34313049  0.12357802  0.24445779    -0.14300
C132        C  0.37678496  0.12502410  0.22900136    -0.29500
H133        H  0.33851388  0.09461408  0.25826073     0.14700
H134        H  0.38195670  0.15478919  0.21603548     0.15300
C135        C  0.09846597  0.12079465  0.25764520    -0.14300
C136        C  0.10964479  0.14249055  0.23393676    -0.29500
H137        H  0.11680172  0.12447608  0.27907934     0.14700
H138        H  0.09097754  0.13824991  0.21263907     0.15300
C139        C  0.11986148  0.36678100  0.01400345    -0.14300
C140        C  0.14756858  0.36492808  0.99362980    -0.29500
H141        H  0.11820064  0.33921255  0.02941706     0.14700
H142        H  0.15665676  0.40286883  0.48106990     0.15300
C143        C  0.40901908  0.37556079  0.51535685    -0.14300
C144        C  0.37511303  0.37362916  0.49567137    -0.29500
H145        H  0.41462825  0.34069513  0.02439658     0.14700
H146        H  0.36979883  0.40050554  0.47968457     0.15300
C147        C  0.37802440  0.11586306  0.49413921    -0.14300
C148        C  0.41466163  0.11807984  0.51080262    -0.29500
H149        H  0.37083158  0.08600023  0.47955030     0.14700
H150        H  0.41548691  0.13727632  0.02452100     0.15300
C151        C  0.11907355  0.10848035  0.01585143    -0.14300
C152        C  0.14682062  0.10771990  0.99546782    -0.29500
H153        H  0.11768738  0.13784004  0.03113293     0.14700
H154        H  0.15481439  0.08531873  0.47875999     0.15300
N155        N  0.07897912  0.99584933  0.50744021    -0.34500
N156        N  0.52020003  0.06696144  0.50661192    -0.55000
N157        N  0.45569459  0.99761207  0.50711163    -0.34500
N158        N  0.51592006  0.42535308  0.51624050    -0.55000
C159        C  0.10245207  0.03360756  0.51470982     0.29100
C160        C  0.10870484  0.46015138  0.52213406     0.29100
C161        C  0.43486432  0.03563570  0.51480080     0.29100
C162        C  0.42984576  0.45830068  0.51954427     0.29100
C163        C  0.04767231  0.09290990  0.50541962     0.37700
C164        C  0.48617572  0.09367538  0.50256231     0.37700
C165        C  0.05461464  0.39931305  0.51481986     0.37700
C166        C  0.48203345  0.39805911  0.51144712     0.37700
C167        C  0.14210825  0.02055701  0.52567757    -0.19800
C168        C  0.14848639  0.47514158  0.53200773    -0.19800
C169        C  0.39942293  0.02315431  0.52770121    -0.19800
C170        C  0.39341291  0.47265515  0.53078943    -0.19800
C171        C  0.03474553  0.13661174  0.49803417    -0.20800
C172        C  0.49700939  0.13646278  0.49343109    -0.20800
C173        C  0.04138349  0.35505310  0.50713656    -0.20800
C174        C  0.49365380  0.35355219  0.50488057    -0.20800
C175        C  0.08963191  0.07945013  0.51040692    -0.16200
C176        C  0.09652417  0.41372064  0.51785177    -0.16200
C177        C  0.44096515  0.41204709  0.51477101    -0.16200
C178        C  0.44597553  0.08109263  0.50902636    -0.16200
H179        H  0.16805697  0.04259885  0.53345407     0.16700
H180        H  0.17521447  0.45435717  0.53871877     0.16700
H181        H  0.37635209  0.04556841  0.53618959     0.16700
H182        H  0.36908683  0.45145053  0.53801092     0.16700
H183        H  0.05388749  0.16568790  0.49400203     0.15000
H184        H  0.47677033  0.16527843  0.48867108     0.15000
H185        H  0.06019587  0.32598449  0.50158791     0.15000
H186        H  0.47371009  0.32395005  0.50025391     0.15000
H187        H  0.04955783  0.99527743  0.49597062     0.28300
H188        H  0.48082442  0.99647123  0.49431028     0.28300
N189        N  0.42049504  0.01135615  0.74480408    -0.34500
N190        N  0.98520601  0.08047042  0.74625545    -0.55000
N191        N  0.04829847  0.01019565  0.75444731    -0.34500
N192        N  0.98500999  0.44056127  0.74300302    -0.55000
C193        C  0.39796169  0.04796786  0.73522428     0.29100
C194        C  0.39718484  0.47296902  0.73262798     0.29100
C195        C  0.07251757  0.04709194  0.75160344     0.29100
C196        C  0.07239722  0.47499045  0.74756733     0.29100
C197        C  0.45066273  0.10906339  0.74854317     0.37700
C198        C  0.01868668  0.10744104  0.75425206     0.37700
C199        C  0.45000364  0.41319168  0.74587538     0.37700
C200        C  0.01877927  0.41452013  0.75040020     0.37700
C201        C  0.36110083  0.03306194  0.71964166    -0.19800
C202        C  0.36021619  0.48622745  0.71719534    -0.19800
C203        C  0.11241372  0.03316897  0.74677539    -0.19800
C204        C  0.11247514  0.48881737  0.74351166    -0.19800
C205        C  0.46298822  0.15371515  0.75615820    -0.20800
C206        C  0.00626737  0.15186231  0.75996894    -0.20800
C207        C  0.46216127  0.36939187  0.75373028    -0.20800
C208        C  0.00669125  0.37052777  0.75605746    -0.20800
C209        C  0.40919039  0.09450922  0.74098764    -0.16200
C210        C  0.40846237  0.42698545  0.73833288    -0.16200
C211        C  0.06044622  0.42925055  0.75076158    -0.16200
C212        C  0.06040450  0.09304258  0.75485256    -0.16200
H213        H  0.33671235  0.05379146  0.70891965     0.16700
H214        H  0.33579277  0.46432991  0.70655425     0.16700
H215        H  0.13905491  0.05447739  0.74399628     0.16700
H216        H  0.13941923  0.46750559  0.74125770     0.16700
H217        H  0.44338701  0.18325228  0.75879016     0.15000
H218        H  0.02587875  0.18118964  0.76646024     0.15000
H219        H  0.44243036  0.34026288  0.75650052     0.15000
H220        H  0.02653048  0.34189934  0.76216352     0.15000
H221        H  0.44742372  0.01237631  0.75943247     0.28300
H222        H  0.01871383  0.01055465  0.76157530     0.28300
O223        O  0.18031204  0.18827292  0.50930092    -0.76400
C224        C  0.27098393  0.24666879  0.57703833     0.84700
O225        O  0.20521892  0.33036793  0.97371667    -0.77500
O226        O  0.34996166  0.30370640  0.51313284    -0.79000
O227        O  0.30715972  0.13912587  0.97574166    -0.78800
O228        O  0.20481513  0.13920200  0.97524542    -0.77400
Zn229      Zn  0.21657711  0.24486241  0.51755548     1.55700
O230        O  0.35273235  0.18743976  0.51199702    -0.78800
Cd231      Cd  0.25505046  0.17883880  0.96658328     1.59700
Cd232      Cd  0.25534382  0.28952967  0.96602688     1.59600
O233        O  0.25013021  0.19340212  0.92143398    -0.78800
O234        O  0.26340350  0.24326831  0.49325804    -1.89300
Cd235      Cd  0.31669957  0.24485635  0.52014791     1.59900
O236        O  0.25069917  0.26957747  0.92123568    -0.78700
O237        O  0.30509169  0.24612627  0.56496035    -0.77400
C238        C  0.18520468  0.33697189  0.49420631     0.85200
C239        C  0.18302740  0.15184789  0.49320571     0.84800
O240        O  0.23601838  0.24602714  0.56140327    -0.76300
C241        C  0.34003915  0.14341972  0.99356425     0.85600
O242        O  0.18330932  0.30285586  0.51094101    -0.76400
C243        C  0.24895599  0.23069759  0.90751425     0.85700
C244        C  0.33981715  0.32905210  0.99280961     0.86100
O245        O  0.30700782  0.33078877  0.97489610    -0.78900
O246        O  0.14808728  0.31329726  0.71317139    -0.76400
C247        C  0.23711438  0.25264055  0.65694321     0.84700
O248        O  0.17093110  0.17428477  0.75755069    -0.77500
O249        O  0.31761131  0.20147535  0.73241173    -0.79000
O250        O  0.27691461  0.36013185  0.75876180    -0.78800
O251        O  0.17151078  0.34790641  0.75637626    -0.77400
Zn252      Zn  0.18401490  0.25802480  0.70946658     1.55700
O253        O  0.31713475  0.31814936  0.73081581    -0.78800
Cd254      Cd  0.22846906  0.31615355  0.76602731     1.59700
Cd255      Cd  0.22832105  0.20606858  0.76605353     1.59600
O256        O  0.23504700  0.30109030  0.81112423    -0.78800
O257        O  0.23070899  0.25977094  0.74002938    -1.89300
Cd258      Cd  0.28318605  0.25864793  0.71994397     1.59900
O259        O  0.23574790  0.22499033  0.81101963    -0.78700
O260        O  0.27123935  0.25452423  0.67366054    -0.77400
C261        C  0.14265563  0.17790752  0.73598951     0.85200
C262        C  0.14464213  0.34341036  0.73377751     0.84800
O263        O  0.20212857  0.25343056  0.66776919    -0.76300
C264        C  0.30974503  0.35499955  0.74535177     0.85600
O265        O  0.14560987  0.20592935  0.71533132    -0.76400
C266        C  0.23762166  0.26369657  0.82491007     0.85700
C267        C  0.30982660  0.16583044  0.74654405     0.86100
O268        O  0.27626251  0.16121236  0.75892440    -0.78900
C269        C  0.24517846  0.22827243  0.87447524    -0.14300
C270        C  0.24271457  0.26589856  0.85794657    -0.29500
H271        H  0.24384590  0.19460080  0.86350713     0.14700
H272        H  0.24399663  0.29955012  0.86893970     0.15300
C273        C  0.27218097  0.24849652  0.61003388    -0.14300
C274        C  0.23720137  0.24971113  0.62409795    -0.29500
H275        H  0.30232896  0.24935353  0.62294898     0.14700
H276        H  0.20714176  0.24884772  0.61104584     0.15300
C277        C  0.09423926  0.39526972  0.75470252    -0.14300
C278        C  0.10808083  0.37340712  0.73102434    -0.26900
H279        H  0.10997800  0.39156001  0.77688054     0.14700
H280        H  0.09165775  0.37726777  0.70905498     0.15300
C281        C  0.37600612  0.39036271  0.73429701    -0.14300
C282        C  0.34015692  0.39308820  0.74720451    -0.29500
H283        H  0.38332551  0.35905108  0.72228019     0.14700
H284        H  0.33354238  0.42365199  0.76025961     0.15300
C285        C  0.34062999  0.12860129  0.74912981    -0.14300
C286        C  0.37682353  0.13056592  0.73678055    -0.29500
H287        H  0.33387249  0.09928813  0.76206881     0.14700
H288        H  0.38422852  0.16070442  0.72484662     0.15300
C289        C  0.09410208  0.12752714  0.75829017    -0.14300
C290        C  0.10510293  0.14922085  0.73453465    -0.29500
H291        H  0.11308117  0.13035044  0.77950654     0.14700
H292        H  0.08602774  0.14548969  0.71337674     0.15300
C293        C  0.12876042  0.37746648  0.51749343    -0.14300
C294        C  0.15604818  0.37553592  0.49676990    -0.29500
H295        H  0.12691795  0.34944168  0.53254206     0.14700
H296        H  0.14805446  0.39191238  0.97766210     0.15300
C297        C  0.40579500  0.36901712  0.01016685    -0.14300
C298        C  0.36972694  0.36728177  0.99277504    -0.29500
H299        H  0.41556071  0.34782925  0.53053055     0.14700
H300        H  0.36213225  0.39473843  0.97754591     0.15300
C301        C  0.37050453  0.10582553  0.99361238    -0.14300
C302        C  0.40693349  0.10707866  0.01059746    -0.29500
H303        H  0.36315741  0.07643778  0.97863541     0.14700
H304        H  0.42322134  0.14874413  0.52425395     0.15300
C305        C  0.12161224  0.11620913  0.51183295    -0.14300
C306        C  0.15227161  0.11482004  0.49378313    -0.29500
H307        H  0.11773539  0.14629588  0.52608242     0.14700
H308        H  0.14699520  0.07890802  0.97961830     0.15300
N309        N  0.07734952  0.48688738  0.01281942    -0.34500
N310        N  0.51145198  0.56024225  0.00841822    -0.55000
N311        N  0.44727941  0.48958335  0.00642734    -0.34500
N312        N  0.51330501  0.91751577  0.00742812    -0.55000
C313        C  0.10180521  0.52422510  0.01905741     0.29100
C314        C  0.09916595  0.95154469  0.01869430     0.29100
C315        C  0.42552582  0.52695893  0.01408803     0.29100
C316        C  0.42735267  0.94985327  0.01184479     0.29100
C317        C  0.04754629  0.58432172  0.01129966     0.37700
C318        C  0.47728660  0.58684713  0.00512637     0.37700
C319        C  0.04418368  0.89146437  0.01149396     0.37700
C320        C  0.47950669  0.89011036  0.00257596     0.37700
C321        C  0.14180962  0.51049312  0.02854291    -0.19800
C322        C  0.13936074  0.96551110  0.02827655    -0.19800
C323        C  0.38922176  0.51334055  0.02539922    -0.19800
C324        C  0.39152959  0.96388306  0.02409092    -0.19800
C325        C  0.03481066  0.62804742  0.00387154    -0.20800
C326        C  0.48805126  0.63078403  0.99809068    -0.20800
C327        C  0.03056770  0.84703812  0.00485307    -0.20800
C328        C  0.49126138  0.84576946  0.99564434    -0.20800
C329        C  0.08941506  0.57026301  0.01518566    -0.16200
C330        C  0.08624601  0.90531053  0.01421018    -0.16200
C331        C  0.43857680  0.90367990  0.00677711    -0.16200
C332        C  0.43680683  0.57297221  0.01007594    -0.16200
H333        H  0.16850248  0.53209075  0.03516999     0.16700
H334        H  0.16588210  0.94408453  0.03436398     0.16700
H335        H  0.36529845  0.53503165  0.03344371     0.16700
H336        H  0.36789982  0.94251416  0.03207330     0.16700
H337        H  0.05402559  0.65675179  0.99922298     0.15000
H338        H  0.46770044  0.65978336  0.99428932     0.15000
H339        H  0.04905906  0.81740930  0.99993596     0.15000
H340        H  0.47141537  0.81610644  0.99094788     0.15000
H341        H  0.04729050  0.48668690  0.00240787     0.28300
H342        H  0.47335909  0.48952047  0.99462301     0.28300
N343        N  0.42527953  0.50203945  0.24155130    -0.34500
N344        N  0.98963065  0.57568357  0.25202915    -0.55000
N345        N  0.05353493  0.50696258  0.25856566    -0.34500
N346        N  0.99046944  0.93203557  0.24852482    -0.55000
C347        C  0.40282124  0.53934424  0.23310261     0.29100
C348        C  0.40138309  0.96819200  0.22659109     0.29100
C349        C  0.07642593  0.54361920  0.25270977     0.29100
C350        C  0.07707742  0.96630879  0.25108108     0.29100
C351        C  0.45541805  0.59872445  0.24998359     0.37700
C352        C  0.02311710  0.60337939  0.25827623     0.37700
C353        C  0.45652702  0.91086005  0.23978275     0.37700
C354        C  0.02420198  0.90651240  0.25685255     0.37700
C355        C  0.36619400  0.52547034  0.21676961    -0.19800
C356        C  0.36282953  0.97993774  0.21276413    -0.19800
C357        C  0.11482501  0.52938856  0.24461570    -0.19800
C358        C  0.11604712  0.97966983  0.24401372    -0.19800
C359        C  0.46782361  0.64195536  0.26090963    -0.20800
C360        C  0.01046994  0.64786935  0.26344821    -0.20800
C361        C  0.47035543  0.86851471  0.24947532    -0.20800
C362        C  0.01211908  0.86313063  0.26391831    -0.20800
C363        C  0.41405148  0.58543573  0.24069561    -0.16200
C364        C  0.41436876  0.92279851  0.23277297    -0.16200
C365        C  0.06572047  0.92096162  0.25599047    -0.16200
C366        C  0.06475898  0.58958192  0.25680337    -0.16200
H367        H  0.34186126  0.54692895  0.20670647     0.16700
H368        H  0.33818604  0.95709244  0.20360102     0.16700
H369        H  0.14040356  0.55038178  0.23916266     0.16700
H370        H  0.14225770  0.95805122  0.24009138     0.16700
H371        H  0.44822448  0.67087042  0.26535571     0.15000
H372        H  0.02996712  0.67776021  0.26835368     0.15000
H373        H  0.45169942  0.83933986  0.25408215     0.15000
H374        H  0.03200349  0.83494199  0.27086629     0.15000
H375        H  0.45195908  0.50182536  0.25642145     0.28300
H376        H  0.02600210  0.50786457  0.26871808     0.28300
O377        O  0.17742182  0.68067394  0.01066281    -0.76400
C378        C  0.26822395  0.74525581  0.07572298     0.84700
O379        O  0.21144923  0.83937177  0.47311119    -0.77500
O380        O  0.34631718  0.79703599  0.00933365    -0.79000
O381        O  0.31385984  0.64861936  0.47833476    -0.78800
O382        O  0.21249181  0.64844798  0.47666204    -0.77400
Zn383      Zn  0.21143924  0.73937384  0.01713858     1.55700
O384        O  0.34587047  0.68118593  0.01095551    -0.78800
Cd385      Cd  0.26229938  0.68834125  0.46825468     1.59700
Cd386      Cd  0.26240884  0.79893867  0.46617212     1.59600
O387        O  0.25787192  0.70114935  0.42314049    -0.78800
O388        O  0.25750191  0.73827206  0.99207222    -1.89300
Cd389      Cd  0.31162110  0.74003401  0.01801157     1.59900
O390        O  0.25880276  0.77721030  0.42133568    -0.78700
O391        O  0.30164713  0.74417304  0.06286839    -0.77400
C392        C  0.17716397  0.82988170  0.99266399     0.85200
C393        C  0.17930494  0.64478718  0.99391145     0.84800
O394        O  0.23261779  0.74364360  0.06087836    -0.76300
C395        C  0.34604573  0.65303361  0.49676528     0.85600
O396        O  0.17545170  0.79553672  0.00927638    -0.76400
C397        C  0.25704140  0.73761230  0.40843397     0.85700
C398        C  0.34651436  0.83910713  0.49395133     0.86100
O399        O  0.31397493  0.84078290  0.47569983    -0.78900
O400        O  0.15075527  0.80410973  0.21673242    -0.76400
C401        C  0.23935420  0.75055314  0.15681477     0.84700
O402        O  0.17777278  0.66940949  0.25948616    -0.77500
O403        O  0.32278618  0.69386284  0.23021171    -0.79000
O404        O  0.28396824  0.85589310  0.25540916    -0.78800
O405        O  0.17835870  0.84326342  0.25707142    -0.77400
Zn406      Zn  0.18920551  0.75180311  0.21069244     1.55700
O407        O  0.32466922  0.81149396  0.22929483    -0.78800
Cd408      Cd  0.23618201  0.81258258  0.26465716     1.59700
Cd409      Cd  0.23530241  0.70228679  0.26723110     1.59600
O410        O  0.24515759  0.80026931  0.30982097    -0.78800
O411        O  0.23733019  0.75468938  0.24001623    -1.89300
Cd412      Cd  0.28908126  0.75256696  0.21880110     1.59900
O413        O  0.24345791  0.72433567  0.31193286    -0.78700
O414        O  0.27431865  0.75052536  0.17259852    -0.77400
C415        C  0.15053601  0.67026077  0.23702964     0.85200
C416        C  0.14880013  0.83559608  0.23663988     0.84800
O417        O  0.20514763  0.75133041  0.16864237    -0.76300
C418        C  0.31714655  0.84942573  0.24261219     0.85600
O419        O  0.15374846  0.69687621  0.21564570    -0.76400
C420        C  0.24684766  0.76396551  0.32468574     0.85700
C421        C  0.31554492  0.65942912  0.24572113     0.86100
O422        O  0.28319746  0.65690053  0.25981441    -0.78900
C423        C  0.25346837  0.73283836  0.37545714    -0.14300
C424        C  0.25241573  0.76888048  0.35765824    -0.29500
H425        H  0.25097121  0.69845673  0.36556542     0.14700
H426        H  0.25492791  0.80327706  0.36752347     0.15300
C427        C  0.27126869  0.74815945  0.10873066    -0.14300
C428        C  0.23737001  0.74923661  0.12388090    -0.29500
H429        H  0.30202471  0.74890756  0.12078325     0.14700
H430        H  0.20667915  0.74857311  0.11170958     0.15300
C431        C  0.09980328  0.88731073  0.25938040    -0.14300
C432        C  0.11085189  0.86342313  0.23555357    -0.26900
H433        H  0.11903147  0.88697541  0.28050012     0.14700
H434        H  0.09133968  0.86446698  0.21455857     0.15300
C435        C  0.38301747  0.88491470  0.23037240    -0.14300
C436        C  0.34751052  0.88750850  0.24370029    -0.29500
H437        H  0.39070634  0.85321844  0.21893694     0.14700
H438        H  0.34069247  0.91854114  0.25621102     0.15300
C439        C  0.34545613  0.62102700  0.24793186    -0.14300
C440        C  0.38242488  0.62248711  0.23654018    -0.29500
H441        H  0.33753392  0.59137621  0.26016191     0.14700
H442        H  0.39126758  0.65318428  0.22575046     0.15300
C443        C  0.09837483  0.62440986  0.25950313    -0.14300
C444        C  0.11397646  0.63987286  0.23519188    -0.29500
H445        H  0.11201346  0.63480218  0.28166351     0.14700
H446        H  0.09900885  0.63027207  0.21323690     0.15300
C447        C  0.11808753  0.86853317  0.01395605    -0.14300
C448        C  0.14680406  0.86742284  0.99428354    -0.29500
H449        H  0.11557786  0.84016365  0.02864215     0.14700
H450        H  0.15428153  0.90110098  0.47549678     0.15300
C451        C  0.41248645  0.87841045  0.51205681    -0.14300
C452        C  0.37665511  0.87722786  0.49433674    -0.29500
H453        H  0.41515952  0.83820464  0.02233232     0.14700
H454        H  0.36964790  0.90477338  0.47907496     0.15300
C455        C  0.37591840  0.61494837  0.49815814    -0.14300
C456        C  0.41052908  0.61541542  0.51706003    -0.29500
H457        H  0.36964541  0.58579105  0.48279048     0.14700
H458        H  0.41233335  0.63843465  0.02737921     0.15300
C459        C  0.12164695  0.60668756  0.01584994    -0.14300
C460        C  0.14974223  0.60674773  0.99577323    -0.29500
H461        H  0.11930978  0.63600196  0.03103928     0.14700
H462        H  0.15660012  0.58663468  0.48156818     0.15300
N463        N  0.08409515  0.49664316  0.51576243    -0.34500
N464        N  0.51673555  0.56576707  0.51516394    -0.55000
N465        N  0.45227952  0.49519259  0.51314744    -0.34500
N466        N  0.51889710  0.92716239  0.50814486    -0.55000
C467        C  0.10773534  0.53469130  0.52148272     0.29100
C468        C  0.10321754  0.95901233  0.51379284     0.29100
C469        C  0.43060036  0.53285883  0.52036573     0.29100
C470        C  0.43389964  0.96113825  0.51497299     0.29100
C471        C  0.05230743  0.59301849  0.51229698     0.37700
C472        C  0.48255342  0.59205490  0.51064729     0.37700
C473        C  0.04891957  0.89863705  0.50524169     0.37700
C474        C  0.48450904  0.90049808  0.50420880     0.37700
C475        C  0.14786095  0.52219224  0.53165847    -0.19800
C476        C  0.14262145  0.97352604  0.52499266    -0.19800
C477        C  0.39395400  0.51971081  0.53141357    -0.19800
C478        C  0.39876337  0.97612002  0.52773128    -0.19800
C479        C  0.03834784  0.63594383  0.50395038    -0.20800
C480        C  0.49336836  0.63528263  0.50224003    -0.20800
C481        C  0.03576084  0.85404385  0.49873554    -0.20800
C482        C  0.49497645  0.85612983  0.49628176    -0.20800
C483        C  0.09448227  0.58016025  0.51629652    -0.16200
C484        C  0.09090473  0.91265818  0.50916022    -0.16200
C485        C  0.44424593  0.91473210  0.50985477    -0.16200
C486        C  0.44203153  0.57865260  0.51577600    -0.16200
H487        H  0.17406385  0.54460278  0.53805556     0.16700
H488        H  0.16894282  0.95246399  0.53220805     0.16700
H489        H  0.37000450  0.54172192  0.53909478     0.16700
H490        H  0.37515358  0.95535256  0.53626893     0.16700
H491        H  0.05672536  0.66471959  0.49824396     0.15000
H492        H  0.47298920  0.66391859  0.49728491     0.15000
H493        H  0.05467461  0.82443702  0.49457623     0.15000
H494        H  0.47441756  0.82698419  0.49191134     0.15000
H495        H  0.05421659  0.49543099  0.50498199     0.28300
H496        H  0.47862357  0.49463689  0.50158741     0.28300
N497        N  0.41973205  0.51064210  0.74214883    -0.34500
N498        N  0.98388678  0.58172502  0.74282349    -0.55000
N499        N  0.04787649  0.51199265  0.75009841    -0.34500
N500        N  0.98483181  0.93952560  0.74585919    -0.55000
C501        C  0.39734535  0.54764294  0.73301605     0.29100
C502        C  0.39820325  0.97340391  0.73555727     0.29100
C503        C  0.07184307  0.54914819  0.74746850     0.29100
C504        C  0.07228587  0.97295847  0.75113076     0.29100
C505        C  0.45063883  0.60814863  0.74657233     0.37700
C506        C  0.01737078  0.60917587  0.74972987     0.37700
C507        C  0.45124873  0.91448393  0.74975460     0.37700
C508        C  0.01816838  0.91309172  0.75358819     0.37700
C509        C  0.36033259  0.53322810  0.71741370    -0.19800
C510        C  0.36126474  0.98611046  0.71983407    -0.19800
C511        C  0.11213117  0.53560448  0.74345360    -0.19800
C512        C  0.11227574  0.98637936  0.74648972    -0.19800
C513        C  0.46333371  0.65259758  0.75444739    -0.20800
C514        C  0.00479788  0.65375649  0.75470334    -0.20800
C515        C  0.46378376  0.87103502  0.75811895    -0.20800
C516        C  0.00553752  0.86920491  0.75902211    -0.20800
C517        C  0.40892052  0.59407886  0.73910108    -0.16200
C518        C  0.40970270  0.92768197  0.74178956    -0.16200
C519        C  0.05990711  0.92728146  0.75389597    -0.16200
C520        C  0.05921685  0.59502204  0.75039279    -0.16200
H521        H  0.33603595  0.55430919  0.70691748     0.16700
H522        H  0.33701682  0.96389937  0.70928978     0.16700
H523        H  0.13876585  0.55715681  0.74111578     0.16700
H524        H  0.13882538  0.96478526  0.74349724     0.16700
H525        H  0.44398255  0.68224919  0.75738691     0.15000
H526        H  0.02431677  0.68345096  0.76030341     0.15000
H527        H  0.44429882  0.84179454  0.76112900     0.15000
H528        H  0.02501476  0.84031925  0.76519683     0.15000
H529        H  0.44676921  0.51115380  0.75665633     0.28300
H530        H  0.01803559  0.51211500  0.75671502     0.28300
O531        O  0.18334660  0.68985104  0.51137429    -0.76400
C532        C  0.27353109  0.75370105  0.57679623     0.84700
O533        O  0.20493000  0.83338314  0.97462605    -0.77500
O534        O  0.35338218  0.80603100  0.51156250    -0.79000
O535        O  0.30777666  0.64286180  0.97436184    -0.78800
O536        O  0.20637935  0.64030644  0.97529707    -0.77400
Zn537      Zn  0.21809834  0.74798880  0.51764542     1.55700
O538        O  0.35273767  0.68872632  0.51367621    -0.78800
Cd539      Cd  0.25497016  0.68147614  0.96595694     1.59700
Cd540      Cd  0.25419776  0.79191010  0.96550138     1.59600
O541        O  0.24849796  0.69577154  0.92086204    -0.78800
O542        O  0.26500595  0.74608405  0.49342695    -1.89300
Cd543      Cd  0.31881657  0.74834784  0.51991761     1.59900
O544        O  0.24753004  0.77191273  0.92045218    -0.78700
O545        O  0.30760366  0.75271942  0.56469701    -0.77400
C546        C  0.18360699  0.83699555  0.49119775     0.85200
C547        C  0.18499276  0.65372266  0.49485418     0.84800
O548        O  0.23848856  0.75221350  0.56124321    -0.76300
C549        C  0.33988312  0.64670441  0.99292990     0.85600
O550        O  0.18228251  0.80402355  0.50895127    -0.76400
C551        C  0.24612888  0.73291292  0.90681274     0.85700
C552        C  0.33987661  0.82966275  0.99136451     0.86100
O553        O  0.30704245  0.83188927  0.97347625    -0.78900
O554        O  0.14693972  0.81386884  0.71267917    -0.76400
C555        C  0.23899076  0.75776387  0.65634319     0.84700
O556        O  0.17037989  0.67554313  0.75496112    -0.77500
O557        O  0.31784347  0.70242781  0.73121541    -0.79000
O558        O  0.27680810  0.86131343  0.75922751    -0.78800
O559        O  0.17109280  0.84835719  0.75572902    -0.77400
Zn560      Zn  0.18451099  0.76006723  0.70806133     1.55700
O561        O  0.31814782  0.81927419  0.73218579    -0.78800
Cd562      Cd  0.22805000  0.81719028  0.76519856     1.59700
Cd563      Cd  0.22782463  0.70708764  0.76467318     1.59600
O564        O  0.23305464  0.80181327  0.81003225    -0.78800
O565        O  0.23079906  0.76116652  0.73903347    -1.89300
Cd566      Cd  0.28393044  0.76052232  0.71968296     1.59900
O567        O  0.23370059  0.72571648  0.80994526    -0.78700
O568        O  0.27286100  0.75884504  0.67336144    -0.77400
C569        C  0.14302794  0.67886395  0.73276326     0.85200
C570        C  0.14352068  0.84339437  0.73363763     0.84800
O571        O  0.20373415  0.75799787  0.66676522    -0.76300
C572        C  0.31038423  0.85597002  0.74675336     0.85600
O573        O  0.14680212  0.70681122  0.71219582    -0.76400
C574        C  0.23503795  0.76448338  0.82383656     0.85700
C575        C  0.30970625  0.66654734  0.74500479     0.86100
O576        O  0.27607139  0.66216575  0.75740105    -0.78900
C577        C  0.24178979  0.72992663  0.87374074    -0.14300
C578        C  0.23904818  0.76714405  0.85689492    -0.29500
H579        H  0.24100953  0.69609410  0.86300773     0.14700
H580        H  0.23987288  0.80095481  0.86766062     0.15300
C581        C  0.27472293  0.75634402  0.60974447    -0.14300
C582        C  0.23960263  0.75599210  0.62359167    -0.29500
H583        H  0.30478682  0.75817819  0.62275270     0.14700
H584        H  0.20967587  0.75410185  0.61039066     0.15300
C585        C  0.09326522  0.89277950  0.75657383    -0.14300
C586        C  0.10617998  0.87214703  0.73213367    -0.26900
H587        H  0.11018914  0.88862751  0.77831900     0.14700
H588        H  0.08877343  0.87654459  0.71056598     0.15300
C589        C  0.37762066  0.89075732  0.73760452    -0.14300
C590        C  0.34114482  0.89366763  0.74965021    -0.29500
H591        H  0.38543356  0.85939381  0.72584227     0.14700
H592        H  0.33403547  0.92427801  0.76249027     0.15300
C593        C  0.34016075  0.62873840  0.74717176    -0.14300
C594        C  0.37675304  0.63065371  0.73524441    -0.29500
H595        H  0.33281020  0.59903550  0.75954892     0.14700
H596        H  0.38465005  0.66119958  0.72391130     0.15300
C597        C  0.09267083  0.62978739  0.75420088    -0.14300
C598        C  0.10556904  0.64994884  0.73046820    -0.29500
H599        H  0.10984494  0.63427937  0.77602850     0.14700
H600        H  0.08807208  0.64493943  0.70877406     0.15300
C601        C  0.12310350  0.87612733  0.51044888    -0.14300
C602        C  0.15269758  0.87424605  0.49144409    -0.29500
H603        H  0.12020425  0.84856719  0.52569792     0.14700
H604        H  0.14815537  0.89515467  0.97894433     0.15300
C605        C  0.40705331  0.86693585  0.00828168    -0.14300
C606        C  0.37082953  0.86669576  0.99104361    -0.29500
H607        H  0.42068963  0.84997984  0.52634303     0.14700
H608        H  0.36381986  0.89454088  0.97602027     0.15300
C609        C  0.37049560  0.60939453  0.99319323    -0.14300
C610        C  0.40513060  0.60941489  0.01207834    -0.29500
H611        H  0.36465314  0.58108415  0.97709055     0.14700
H612        H  0.41810435  0.64524667  0.53157100     0.15300
C613        C  0.12597035  0.61721112  0.51612960    -0.14300
C614        C  0.15491628  0.61618204  0.49667579    -0.29500
H615        H  0.12288817  0.64734931  0.53048903     0.14700
H616        H  0.15072432  0.57803985  0.97991198     0.15300
N617        N  0.57665146  0.98777278  0.00400968    -0.34500
N618        N  0.01201024  0.05984894  0.01838091    -0.55000
N619        N  0.94781300  0.98976517  0.01585937    -0.34500
N620        N  0.01356246  0.41738148  0.01631938    -0.55000
C621        C  0.60044064  0.02575553  0.00953456     0.29100
C622        C  0.59868929  0.45326889  0.00812103     0.29100
C623        C  0.92525872  0.02724499  0.02221009     0.29100
C624        C  0.92718710  0.45172629  0.02021795     0.29100
C625        C  0.54529723  0.08411727  0.00032297     0.37700
C626        C  0.97811231  0.08699185  0.01512813     0.37700
C627        C  0.54376645  0.39329747  0.99989769     0.37700
C628        C  0.97934819  0.39040533  0.01329687     0.37700
C629        C  0.64006354  0.01340649  0.02092912    -0.19800
C630        C  0.63867152  0.46725175  0.01833980    -0.19800
C631        C  0.88763778  0.01367539  0.03155933    -0.19800
C632        C  0.88984278  0.46671061  0.02979409    -0.19800
C633        C  0.53142768  0.12750539  0.99300118    -0.20800
C634        C  0.98957204  0.13098064  0.00879995    -0.20800
C635        C  0.53022457  0.34916809  0.99211856    -0.20800
C636        C  0.99020747  0.34546414  0.00727771    -0.20800
C637        C  0.58745361  0.07112136  0.00392281    -0.16200
C638        C  0.58582446  0.40713398  0.00324725    -0.16200
C639        C  0.93853254  0.40516826  0.01694975    -0.16200
C640        C  0.93704606  0.07332542  0.01878988    -0.16200
H641        H  0.66614486  0.03582504  0.02767227     0.16700
H642        H  0.66511130  0.44589119  0.02475499     0.16700
H643        H  0.86279272  0.03539705  0.03815579     0.16700
H644        H  0.86504670  0.44599179  0.03681996     0.16700
H645        H  0.54976464  0.15647665  0.98756285     0.15000
H646        H  0.96960178  0.16031586  0.00510504     0.15000
H647        H  0.54876588  0.32004977  0.98624559     0.15000
H648        H  0.96987485  0.31598068  0.00388527     0.15000
H649        H  0.54711341  0.98642313  0.99264521     0.28300
H650        H  0.97511366  0.98942467  0.00543755     0.28300
N651        N  0.92602538  0.00151665  0.24435322    -0.34500
N652        N  0.48541328  0.07917953  0.23202274    -0.55000
N653        N  0.55038828  0.01080154  0.23805930    -0.34500
N654        N  0.48964045  0.43142171  0.24098923    -0.55000
C655        C  0.90390719  0.03800961  0.23408668     0.29100
C656        C  0.90388238  0.46611027  0.24701547     0.29100
C657        C  0.57283727  0.04772904  0.23204160     0.29100
C658        C  0.57611775  0.46527428  0.24276226     0.29100
C659        C  0.95590066  0.09914833  0.24906644     0.37700
C660        C  0.51885735  0.10715972  0.23728401     0.37700
C661        C  0.95820820  0.40930994  0.26234844     0.37700
C662        C  0.52343103  0.40515974  0.24791077     0.37700
C663        C  0.86793284  0.02288052  0.21742136    -0.19800
C664        C  0.86662184  0.47691482  0.23098375    -0.19800
C665        C  0.61219764  0.03412612  0.22557821    -0.19800
C666        C  0.61504331  0.48004061  0.23646731    -0.19800
C667        C  0.96783353  0.14356139  0.25780838    -0.20800
C668        C  0.50633118  0.15126278  0.24384215    -0.20800
C669        C  0.97188337  0.36671798  0.27171749    -0.20800
C670        C  0.51124753  0.36161505  0.25457629    -0.20800
C671        C  0.91467899  0.08457670  0.24038506    -0.16200
C672        C  0.91623833  0.42128278  0.25496004    -0.16200
C673        C  0.56492967  0.41923166  0.24615032    -0.16200
C674        C  0.56046413  0.09363076  0.23539304    -0.16200
H675        H  0.84409320  0.04345245  0.20591647     0.16700
H676        H  0.84244038  0.45361749  0.22165332     0.16700
H677        H  0.63764679  0.05563221  0.22046837     0.16700
H678        H  0.64156396  0.45955706  0.23169544     0.16700
H679        H  0.94800058  0.17276444  0.26090523     0.15000
H680        H  0.52582042  0.18115519  0.24877359     0.15000
H681        H  0.95313370  0.33776184  0.27659824     0.15000
H682        H  0.53102812  0.33283319  0.26042369     0.15000
H683        H  0.95219622  0.00273778  0.25971491     0.28300
H684        H  0.52214691  0.01137933  0.24735551     0.28300
O685        O  0.67385413  0.18248419  0.00065922    -0.76400
C686        C  0.75132927  0.24624598  0.07278995     0.84700
O687        O  0.71297732  0.34805714  0.47933341    -0.77500
O688        O  0.84460872  0.29846120  0.01510032    -0.79000
O689        O  0.81435207  0.15780153  0.46859577    -0.78800
O690        O  0.71263707  0.15460182  0.46790454    -0.77400
Zn691      Zn  0.70727740  0.24032597  0.00985572     1.55700
O692        O  0.84386279  0.18175919  0.01670680    -0.78800
Cd693      Cd  0.76149463  0.19798154  0.46136403     1.59700
Cd694      Cd  0.76254026  0.30859372  0.46939022     1.59600
O695        O  0.75406869  0.22079785  0.41738011    -0.78800
O696        O  0.75840349  0.23950363  0.99048119    -1.89300
Cd697      Cd  0.80795175  0.24115102  0.02138665     1.59900
O698        O  0.75604874  0.29671862  0.42379051    -0.78700
O699        O  0.78819955  0.24599012  0.06467161    -0.77400
C700        C  0.67862963  0.33215458  0.98547743     0.85200
C701        C  0.67947868  0.14545585  0.98588420     0.84800
O702        O  0.71957089  0.24372169  0.05395143    -0.76300
C703        C  0.84473153  0.15775155  0.48887813     0.85600
O704        O  0.67321304  0.29651107  0.00016486    -0.76400
C705        C  0.75260659  0.26093460  0.40689238     0.85700
C706        C  0.84757531  0.34180447  0.49887936     0.86100
O707        O  0.81530632  0.34735477  0.48088880    -0.78900
O708        O  0.66420073  0.31572047  0.20802112    -0.76400
C709        C  0.76332307  0.25637881  0.15872789     0.84700
O710        O  0.67335847  0.16884460  0.24471806    -0.77500
O711        O  0.82708814  0.19507205  0.23576422    -0.79000
O712        O  0.78247556  0.35077725  0.26754178    -0.78800
O713        O  0.67697829  0.33789814  0.25599889    -0.77400
Zn714      Zn  0.69785245  0.25801755  0.20405121     1.55700
O715        O  0.82782732  0.31158937  0.24231735    -0.78800
Cd716      Cd  0.73296892  0.30485743  0.26799104     1.59700
Cd717      Cd  0.73139984  0.19523993  0.25839868     1.59600
O718        O  0.73491566  0.28056223  0.31137057    -0.78800
O719        O  0.73892574  0.25362923  0.23830142    -1.89300
Cd720      Cd  0.79563663  0.25454701  0.22481531     1.59900
O721        O  0.73538113  0.20487399  0.30413602    -0.78700
O722        O  0.79354458  0.25720969  0.17898335    -0.77400
C723        C  0.64756235  0.17697938  0.22232862     0.85200
C724        C  0.65582925  0.34017900  0.23061225     0.84800
O725        O  0.72556528  0.25612764  0.16504076    -0.76300
C726        C  0.81786693  0.34698205  0.25729725     0.85600
O727        O  0.65452693  0.20742066  0.20381516    -0.76400
C728        C  0.73660265  0.24019058  0.32143111     0.85700
C729        C  0.81498929  0.15612756  0.24357828     0.86100
O730        O  0.77812654  0.14931698  0.25033091    -0.78900
C731        C  0.74674216  0.26760339  0.37429806    -0.14300
C732        C  0.74084596  0.23300687  0.35399711    -0.29500
H733        H  0.74741848  0.30248734  0.36681289     0.14700
H734        H  0.74034735  0.19806831  0.36139398     0.15300
C735        C  0.74337609  0.24938296  0.10456085    -0.14300
C736        C  0.77311470  0.25493023  0.12723704    -0.29500
H737        H  0.71115179  0.24692332  0.10937947     0.14700
H738        H  0.80544747  0.25728742  0.12269974     0.15300
C739        C  0.59874351  0.38487474  0.24971054    -0.14300
C740        C  0.62031275  0.37174435  0.22686698    -0.26900
H741        H  0.60598688  0.37065722  0.27155054     0.14700
H742        H  0.61102412  0.38392216  0.20469915     0.15300
C743        C  0.88527847  0.38326902  0.25139212    -0.14300
C744        C  0.84803435  0.38513834  0.26245614    -0.29500
H745        H  0.89425900  0.35218378  0.23982794     0.14700
H746        H  0.83936380  0.41548585  0.27493470     0.15300
C747        C  0.84463793  0.11777298  0.24560090    -0.14300
C748        C  0.88248693  0.12077941  0.23573419    -0.29500
H749        H  0.83567708  0.08700691  0.25625241     0.14700
H750        H  0.89136385  0.15217337  0.22575853     0.15300
C751        C  0.59420089  0.12808761  0.24028449    -0.14300
C752        C  0.60853198  0.15031531  0.21773917    -0.29500
H753        H  0.61077469  0.13049435  0.26242126     0.14700
H754        H  0.59186763  0.14793807  0.19563189     0.15300
C755        C  0.61754738  0.37031166  0.00371718    -0.14300
C756        C  0.64839472  0.36987479  0.98575666    -0.29500
H757        H  0.61348598  0.34144048  0.01773061     0.14700
H758        H  0.65332892  0.40597056  0.48237707     0.15300
C759        C  0.91454260  0.37635856  0.51974267    -0.14300
C760        C  0.87916591  0.37853416  0.50163184    -0.29500
H761        H  0.91118636  0.34286009  0.03430665     0.14700
H762        H  0.87343406  0.40821479  0.48796985     0.15300
C763        C  0.87456084  0.11930967  0.48855737    -0.14300
C764        C  0.90795692  0.11649253  0.50859155    -0.29500
H765        H  0.86915104  0.09265332  0.47124102     0.14700
H766        H  0.91034270  0.13778233  0.03630230     0.15300
C767        C  0.61895330  0.10827449  0.00438604    -0.14300
C768        C  0.64968562  0.10727411  0.98632315    -0.29500
H769        H  0.61471437  0.13852278  0.01841176     0.14700
H770        H  0.65835193  0.08923375  0.47049754     0.15300
N771        N  0.58288334  0.99612790  0.50321324    -0.34500
N772        N  0.01448382  0.06615601  0.50887815    -0.55000
N773        N  0.95070091  0.99587749  0.50554990    -0.34500
N774        N  0.02186908  0.42596727  0.52032619    -0.55000
C775        C  0.60715948  0.03368573  0.50912770     0.29100
C776        C  0.60332629  0.45904702  0.52073813     0.29100
C777        C  0.92775782  0.03346989  0.51105225     0.29100
C778        C  0.93606872  0.45875409  0.52569992     0.29100
C779        C  0.55263960  0.09278438  0.50019822     0.37700
C780        C  0.98056531  0.09282383  0.50366176     0.37700
C781        C  0.54899093  0.39830011  0.51251456     0.37700
C782        C  0.98784941  0.39878570  0.51583335     0.37700
C783        C  0.64677161  0.02045009  0.51995752    -0.19800
C784        C  0.64303240  0.47360167  0.53129253    -0.19800
C785        C  0.89059117  0.02020285  0.52121214    -0.19800
C786        C  0.90016345  0.47298951  0.53779307    -0.19800
C787        C  0.53914380  0.13590830  0.49195032    -0.20800
C788        C  0.99228010  0.13655206  0.49694332    -0.20800
C789        C  0.53607793  0.35368736  0.50558706    -0.20800
C790        C  0.99908982  0.35474474  0.50770433    -0.20800
C791        C  0.59464541  0.07939446  0.50413607    -0.16200
C792        C  0.59083456  0.41270098  0.51652094    -0.16200
C793        C  0.94701096  0.41258512  0.52031034    -0.16200
C794        C  0.93934028  0.07937258  0.50687172    -0.16200
H795        H  0.67319637  0.04236100  0.52674621     0.16700
H796        H  0.66921394  0.45259042  0.53888525     0.16700
H797        H  0.86573690  0.04208137  0.52760874     0.16700
H798        H  0.87671864  0.45170249  0.54608607     0.16700
H799        H  0.55778669  0.16423800  0.48587479     0.15000
H800        H  0.97233429  0.16554598  0.49199052     0.15000
H801        H  0.55517173  0.32419671  0.50151380     0.15000
H802        H  0.97898074  0.32537189  0.50269392     0.15000
H803        H  0.55312262  0.99548190  0.49219091     0.28300
H804        H  0.97794870  0.99514522  0.49508811     0.28300
N805        N  0.92096339  0.00996752  0.74171729    -0.34500
N806        N  0.48434762  0.08214633  0.74699573    -0.55000
N807        N  0.54777251  0.01229857  0.75331248    -0.34500
N808        N  0.48386902  0.43983967  0.74443557    -0.55000
C809        C  0.89874616  0.04689026  0.73228899     0.29100
C810        C  0.89785698  0.47249078  0.73103771     0.29100
C811        C  0.57135046  0.04916836  0.74902209     0.29100
C812        C  0.57138963  0.47306049  0.74829809     0.29100
C813        C  0.95144650  0.10751205  0.74715302     0.37700
C814        C  0.51795450  0.10938264  0.75376353     0.37700
C815        C  0.95143268  0.41342018  0.74431881     0.37700
C816        C  0.51738488  0.41326231  0.75156138     0.37700
C817        C  0.86202691  0.03241377  0.71631389    -0.19800
C818        C  0.86034818  0.48523363  0.71610707    -0.19800
C819        C  0.61065308  0.03518921  0.74269736    -0.19800
C820        C  0.61125469  0.48638793  0.74328689    -0.19800
C821        C  0.96364686  0.15191986  0.75557664    -0.20800
C822        C  0.50566758  0.15390094  0.75936369    -0.20800
C823        C  0.96404303  0.36982377  0.75229963    -0.20800
C824        C  0.50484034  0.36944663  0.75723227    -0.20800
C825        C  0.91004221  0.09330434  0.73866426    -0.16200
C826        C  0.90972883  0.42665474  0.73678530    -0.16200
C827        C  0.55917766  0.42741713  0.75155943    -0.16200
C828        C  0.55950367  0.09512743  0.75289581    -0.16200
H829        H  0.83782771  0.05346421  0.70566492     0.16700
H830        H  0.83586530  0.46303401  0.70588856     0.16700
H831        H  0.63683828  0.05641787  0.73870964     0.16700
H832        H  0.63775561  0.46472758  0.74027620     0.16700
H833        H  0.94399388  0.18143357  0.75812016     0.15000
H834        H  0.52538376  0.18348960  0.76479453     0.15000
H835        H  0.94463088  0.34043118  0.75506249     0.15000
H836        H  0.52439720  0.34050708  0.76313006     0.15000
H837        H  0.94755392  0.01058565  0.75665158     0.28300
H838        H  0.51910155  0.01280344  0.76191842     0.28300
O839        O  0.68305015  0.18986847  0.50502031    -0.76400
C840        C  0.76943876  0.24828195  0.57486594     0.84700
O841        O  0.70990407  0.33658318  0.97066483    -0.77500
O842        O  0.85293072  0.30607127  0.51428823    -0.79000
O843        O  0.81298333  0.14608349  0.97584059    -0.78800
O844        O  0.71062649  0.14000998  0.97087968    -0.77400
Zn845      Zn  0.71614477  0.24806958  0.51499318     1.55700
O846        O  0.84960059  0.18919328  0.50931057    -0.78800
Cd847      Cd  0.75972552  0.18284825  0.96457606     1.59700
Cd848      Cd  0.75906337  0.29333254  0.96423886     1.59600
O849        O  0.75603430  0.19759168  0.91962370    -0.78800
O850        O  0.76366445  0.25043955  0.49141697    -1.89300
Cd851      Cd  0.81648340  0.24826370  0.51861465     1.59900
O852        O  0.75499135  0.27374494  0.91921357    -0.78700
O853        O  0.80366619  0.24779813  0.56298170    -0.77400
C854        C  0.68308963  0.34094463  0.49498642     0.85200
C855        C  0.68530670  0.15620120  0.48649743     0.84800
O856        O  0.73455292  0.24830787  0.55910368    -0.76300
C857        C  0.84175963  0.14878366  0.99719705     0.85600
O858        O  0.67973679  0.30391439  0.50874313    -0.76400
C859        C  0.75400106  0.23475332  0.90559643     0.85700
C860        C  0.84202557  0.32976680  0.99585644     0.86100
O861        O  0.81241882  0.33119541  0.97514024    -0.78900
O862        O  0.64635594  0.31172989  0.71241002    -0.76400
C863        C  0.73637771  0.25367241  0.65491321     0.84700
O864        O  0.67196364  0.17391130  0.75557636    -0.77500
O865        O  0.81823954  0.20075950  0.72958237    -0.79000
O866        O  0.77746965  0.36035675  0.75600638    -0.78800
O867        O  0.67122965  0.34778044  0.75472088    -0.77400
Zn868      Zn  0.68405165  0.25798141  0.70772181     1.55700
O869        O  0.81829809  0.31747897  0.72901826    -0.78800
Cd870      Cd  0.72889737  0.31671936  0.76342866     1.59700
Cd871      Cd  0.72930471  0.20628682  0.76419680     1.59600
O872        O  0.73652040  0.30247833  0.80846230    -0.78800
O873        O  0.73126914  0.25980003  0.73791869    -1.89300
Cd874      Cd  0.78372490  0.25836921  0.71767089     1.59900
O875        O  0.73706731  0.22639516  0.80911899    -0.78700
O876        O  0.77076128  0.25482557  0.67139425    -0.77400
C877        C  0.64417932  0.17668273  0.73359099     0.85200
C878        C  0.64317441  0.34199945  0.73296523     0.84800
O879        O  0.70159035  0.25483741  0.66598159    -0.76300
C880        C  0.81080390  0.35458325  0.74326935     0.85600
O881        O  0.64716594  0.20452029  0.71285911    -0.76400
C882        C  0.73934462  0.26547096  0.82261285     0.85700
C883        C  0.81073317  0.16541751  0.74410490     0.86100
O884        O  0.77751929  0.16136311  0.75702507    -0.78900
C885        C  0.74975678  0.23170340  0.87256599    -0.14300
C886        C  0.74528005  0.26872932  0.85562596    -0.29500
H887        H  0.74939688  0.19781804  0.86192650     0.14700
H888        H  0.74564687  0.30262825  0.86624729     0.15300
C889        C  0.77067811  0.24934497  0.60782348    -0.14300
C890        C  0.73590768  0.25110931  0.62204034    -0.29500
H891        H  0.80089451  0.24940681  0.62064052     0.14700
H892        H  0.70573878  0.25104138  0.60913846     0.15300
C893        C  0.59289304  0.39314827  0.75500910    -0.14300
C894        C  0.60557080  0.37063758  0.73112494    -0.26900
H895        H  0.61044811  0.39093207  0.77669590     0.14700
H896        H  0.58766422  0.37333510  0.70958092     0.15300
C897        C  0.87762220  0.38961443  0.73292254    -0.14300
C898        C  0.84159468  0.39230886  0.74560022    -0.29500
H899        H  0.88510143  0.35833395  0.72093458     0.14700
H900        H  0.83486377  0.42286054  0.75862915     0.15300
C901        C  0.84139416  0.12786245  0.74651666    -0.14300
C902        C  0.87783039  0.12966384  0.73440656    -0.29500
H903        H  0.83435494  0.09843115  0.75925745     0.14700
H904        H  0.88563227  0.15996939  0.72278681     0.15300
C905        C  0.59313357  0.12970229  0.75591756    -0.14300
C906        C  0.60714172  0.14721441  0.73167851    -0.29500
H907        H  0.60872570  0.13728022  0.77796281     0.14700
H908        H  0.59066584  0.13987876  0.70986255     0.15300
C909        C  0.62310224  0.37667718  0.51639183    -0.14300
C910        C  0.65208775  0.37734794  0.49704587    -0.29500
H911        H  0.62077661  0.34764650  0.53056834     0.14700
H912        H  0.65173362  0.39818235  0.97115074     0.15300
C913        C  0.90616659  0.36921271  0.01794161    -0.14300
C914        C  0.87365741  0.36636470  0.99712092    -0.29500
H915        H  0.92146015  0.34593554  0.53244600     0.14700
H916        H  0.87027149  0.39194840  0.98011150     0.15300
C917        C  0.87286341  0.11161830  0.99874758    -0.14300
C918        C  0.90509694  0.10998578  0.01978157    -0.29500
H919        H  0.86938158  0.08453163  0.98156885     0.14700
H920        H  0.91468705  0.14401834  0.52513473     0.15300
C921        C  0.62637398  0.11642205  0.50552383    -0.14300
C922        C  0.65595010  0.11742888  0.48655442    -0.29500
H923        H  0.62267989  0.14543536  0.52072173     0.14700
H924        H  0.65321524  0.07749315  0.97173065     0.15300
N925        N  0.57455428  0.49041138  0.00270517    -0.34500
N926        N  0.01433802  0.55804010  0.01552255    -0.55000
N927        N  0.94982201  0.48821566  0.01339284    -0.34500
N928        N  0.01169025  0.91883456  0.01647082    -0.55000
C929        C  0.59867761  0.52781888  0.00958737     0.29100
C930        C  0.60061677  0.95143718  0.01194727     0.29100
C931        C  0.92740644  0.52619501  0.01874462     0.29100
C932        C  0.92511631  0.95260133  0.02128987     0.29100
C933        C  0.54384791  0.58723404  0.00343421     0.37700
C934        C  0.98055538  0.58494787  0.01054344     0.37700
C935        C  0.54647926  0.89061083  0.00370534     0.37700
C936        C  0.97746514  0.89193702  0.01271542     0.37700
C937        C  0.63866264  0.51425173  0.01926945    -0.19800
C938        C  0.64015068  0.96651854  0.02250962    -0.19800
C939        C  0.88998609  0.51365068  0.02887837    -0.19800
C940        C  0.88756085  0.96662941  0.03101312    -0.19800
C941        C  0.53022123  0.63102524  0.99701821    -0.20800
C942        C  0.99241386  0.62842143  0.00334297    -0.20800
C943        C  0.53371781  0.84605815  0.99645647    -0.20800
C944        C  0.98836053  0.84731886  0.00566222    -0.20800
C945        C  0.58586601  0.57382601  0.00641546    -0.16200
C946        C  0.58828189  0.90494217  0.00854048    -0.16200
C947        C  0.93659527  0.90636588  0.01659006    -0.16200
C948        C  0.93928255  0.57176351  0.01386901    -0.16200
H949        H  0.66510022  0.53589474  0.02652072     0.16700
H950        H  0.66638156  0.94590946  0.03055807     0.16700
H951        H  0.86536345  0.53597102  0.03513749     0.16700
H952        H  0.86262727  0.94521644  0.03711433     0.16700
H953        H  0.54872489  0.66022651  0.99221711     0.15000
H954        H  0.97262318  0.65749338  0.99827366     0.15000
H955        H  0.55298556  0.81669804  0.99240150     0.15000
H956        H  0.96804614  0.81793318  0.00146912     0.15000
H957        H  0.54452674  0.49019580  0.99214083     0.28300
H958        H  0.97692278  0.48702729  0.00276788     0.28300
N959        N  0.92604730  0.50494498  0.25412653    -0.34500
N960        N  0.48903375  0.57220427  0.24692736    -0.55000
N961        N  0.55239894  0.50185302  0.24878793    -0.34500
N962        N  0.48935602  0.93815463  0.23634527    -0.55000
C963        C  0.90317485  0.54026851  0.24283026     0.29100
C964        C  0.90424387  0.96342944  0.23461419     0.29100
C965        C  0.57577871  0.53953556  0.24638895     0.29100
C966        C  0.57514562  0.97396641  0.23570264     0.29100
C967        C  0.95570011  0.60234755  0.25336430     0.37700
C968        C  0.52271582  0.59832013  0.25586850     0.37700
C969        C  0.95689155  0.90512895  0.25038840     0.37700
C970        C  0.52391167  0.91353614  0.24412668     0.37700
C971        C  0.86620747  0.52358199  0.22830987    -0.19800
C972        C  0.86812652  0.97591627  0.21777881    -0.19800
C973        C  0.61476840  0.52685634  0.23866649    -0.19800
C974        C  0.61365845  0.98754975  0.22790982    -0.19800
C975        C  0.96774980  0.64726015  0.26032210    -0.20800
C976        C  0.51052478  0.64167750  0.26462862    -0.20800
C977        C  0.96942134  0.86224318  0.25988477    -0.20800
C978        C  0.51304115  0.87027696  0.25228542    -0.20800
C979        C  0.91421740  0.58726773  0.24622885    -0.16200
C980        C  0.91545604  0.91783847  0.24149552    -0.16200
C981        C  0.56509250  0.92893611  0.24255376    -0.16200
C982        C  0.56418865  0.58467617  0.25362012    -0.16200
H983        H  0.84158497  0.54288421  0.21662908     0.16700
H984        H  0.84446125  0.95355407  0.20661999     0.16700
H985        H  0.64086987  0.54888571  0.23576821     0.16700
H986        H  0.64034790  0.96622763  0.22478318     0.16700
H987        H  0.94790037  0.67666809  0.26264376     0.15000
H988        H  0.53033763  0.67034227  0.27229949     0.15000
H989        H  0.94993754  0.83315945  0.26326866     0.15000
H990        H  0.53367932  0.84275520  0.25929532     0.15000
H991        H  0.95338089  0.50759398  0.26828655     0.28300
H992        H  0.52424273  0.50106214  0.25810291     0.28300
O993        O  0.67762736  0.68182973  0.00724073    -0.76400
C994        C  0.76936176  0.74011925  0.07563044     0.84700
O995        O  0.71302498  0.83658694  0.47227897    -0.77500
O996        O  0.84716054  0.79690486  0.01164462    -0.79000
O997        O  0.81558087  0.64501770  0.47832099    -0.78800
O998        O  0.71294952  0.64399946  0.47642153    -0.77400
Zn999      Zn  0.71357663  0.73853954  0.01634983     1.55700
O1000       O  0.84852608  0.68042998  0.01094749    -0.78800
Cd1001     Cd  0.76291855  0.68384882  0.46770746     1.59700
Cd1002     Cd  0.76222274  0.79415251  0.46528922     1.59600
O1003       O  0.75763735  0.69687460  0.42225024    -0.78800
O1004       O  0.76017828  0.73731708  0.99171991    -1.89300
Cd1005     Cd  0.81352437  0.73852185  0.01832545     1.59900
O1006       O  0.75649729  0.77292068  0.42066319    -0.78700
O1007       O  0.80292486  0.74010164  0.06298971    -0.77400
C1008       C  0.68034985  0.82901100  0.99127289     0.85200
C1009       C  0.67946882  0.64660396  0.98990016     0.84800
O1010       O  0.73388092  0.73931623  0.06052777    -0.76300
C1011       C  0.84722981  0.65009948  0.49729395     0.85600
O1012       O  0.67882392  0.79577382  0.00881310    -0.76400
C1013       C  0.75517052  0.73352385  0.40762391     0.85700
C1014       C  0.84601300  0.83389167  0.49292956     0.86100
O1015       O  0.81456781  0.83420738  0.47368908    -0.78900
O1016       O  0.64969450  0.80385350  0.21242194    -0.76400
C1017       C  0.73958749  0.74444491  0.15658888     0.84700
O1018       O  0.67503876  0.66738424  0.25836700    -0.77500
O1019       O  0.82145133  0.69367164  0.23235215    -0.79000
O1020       O  0.78103802  0.85372594  0.25723835    -0.78800
O1021       O  0.67468311  0.84403342  0.25305032    -0.77400
Zn1022     Zn  0.68729450  0.74994637  0.20936863     1.55700
O1023       O  0.82198831  0.81020858  0.23072213    -0.78800
Cd1024     Cd  0.73128042  0.81145472  0.26406667     1.59700
Cd1025     Cd  0.73198346  0.70088335  0.26668207     1.59600
O1026       O  0.73660714  0.79861435  0.30950208    -0.78800
O1027       O  0.73430814  0.75342215  0.23956555    -1.89300
Cd1028     Cd  0.78704020  0.75115228  0.21935586     1.59900
O1029       O  0.73865493  0.72263569  0.31121375    -0.78700
O1030       O  0.77418662  0.74685531  0.17284227    -0.77400
C1031       C  0.64733318  0.66964063  0.23630382     0.85200
C1032       C  0.64677992  0.83653341  0.23137775     0.84800
O1033       O  0.70501916  0.74498650  0.16791109    -0.76300
C1034       C  0.81463969  0.84743026  0.24491869     0.85600
O1035       O  0.65035047  0.69711827  0.21539628    -0.76400
C1036       C  0.73975178  0.76206874  0.32418820     0.85700
C1037       C  0.81407994  0.65946755  0.24799519     0.86100
O1038       O  0.78083850  0.65630878  0.26097582    -0.78900
C1039       C  0.75036154  0.72958149  0.37458814    -0.14300
C1040       C  0.74497265  0.76614271  0.35721866    -0.29500
H1041       H  0.75079616  0.69548659  0.36431884     0.14700
H1042       H  0.74450146  0.80024568  0.36747559     0.15300
C1043       C  0.77220585  0.74151850  0.10867960    -0.14300
C1044       C  0.73820644  0.74130785  0.12367248    -0.29500
H1045       H  0.80285310  0.74335222  0.12087150     0.14700
H1046       H  0.70766754  0.73942004  0.11131175     0.15300
C1047       C  0.60033063  0.89698860  0.24836982    -0.14300
C1048       C  0.60940917  0.86551438  0.22774747    -0.26900
H1049       H  0.62143450  0.90311439  0.26834647     0.14700
H1050       H  0.58853635  0.86083865  0.20747967     0.15300
C1051       C  0.88335950  0.88076350  0.23723812    -0.14300
C1052       C  0.84584678  0.88477493  0.24773024    -0.29500
H1053       H  0.89182342  0.84855781  0.22678594     0.14700
H1054       H  0.83816506  0.91617822  0.25951334     0.15300
C1055       C  0.84495032  0.62226187  0.25193114    -0.14300
C1056       C  0.88173302  0.62303728  0.24023532    -0.29500
H1057       H  0.83781816  0.59411227  0.26574649     0.14700
H1058       H  0.88959236  0.65227683  0.22760875     0.15300
C1059       C  0.59774490  0.61931439  0.25786843    -0.14300
C1060       C  0.61043622  0.63992883  0.23424403    -0.29500
H1061       H  0.61428259  0.62435653  0.27986867     0.14700
H1062       H  0.59302061  0.63463129  0.21253620     0.15300
C1063       C  0.62045724  0.86865259  0.01065132    -0.14300
C1064       C  0.64986279  0.86639651  0.99161660    -0.29500
H1065       H  0.61738335  0.84137734  0.02608424     0.14700
H1066       H  0.65683825  0.89925712  0.47350899     0.15300
C1067       C  0.91008733  0.87573493  0.51204760    -0.14300
C1068       C  0.87608858  0.87174307  0.49266821    -0.29500
H1069       H  0.91018474  0.84255011  0.03205321     0.14700
H1070       H  0.87026129  0.89720181  0.47575584     0.15300
C1071       C  0.87819925  0.61284096  0.49935842    -0.14300
C1072       C  0.91263443  0.61473449  0.51857577    -0.29500
H1073       H  0.87290547  0.58315315  0.48431916     0.14700
H1074       H  0.91440625  0.63847234  0.02866062     0.15300
C1075       C  0.61773599  0.61070486  0.00780398    -0.14300
C1076       C  0.64814567  0.60997066  0.98954749    -0.29500
H1077       H  0.61433732  0.64014969  0.02270498     0.14700
H1078       H  0.65611868  0.58278435  0.48082593     0.15300
N1079       N  0.57954253  0.49572155  0.51338753    -0.34500
N1080       N  0.01998289  0.56645616  0.51798864    -0.55000
N1081       N  0.95725651  0.49564516  0.51787154    -0.34500
N1082       N  0.01603307  0.92591508  0.50936616    -0.55000
C1083       C  0.60368593  0.53341097  0.51914547     0.29100
C1084       C  0.60651229  0.95918481  0.51036461     0.29100
C1085       C  0.93504035  0.53315876  0.52461654     0.29100
C1086       C  0.92881296  0.95894110  0.51258358     0.29100
C1087       C  0.54922015  0.59220329  0.50958075     0.37700
C1088       C  0.98555403  0.59239874  0.51319622     0.37700
C1089       C  0.55116532  0.89971389  0.50282865     0.37700
C1090       C  0.98205812  0.89867095  0.50549154     0.37700
C1091       C  0.64326120  0.52052399  0.53027062    -0.19800
C1092       C  0.64635842  0.97343155  0.52075675    -0.19800
C1093       C  0.89948743  0.51998632  0.53706619    -0.19800
C1094       C  0.89129418  0.97324533  0.52225737    -0.19800
C1095       C  0.53561551  0.63535153  0.50151847    -0.20800
C1096       C  0.99605133  0.63554012  0.50451408    -0.20800
C1097       C  0.53721245  0.85561352  0.49545867    -0.20800
C1098       C  0.99344410  0.85404659  0.49893470    -0.20800
C1099       C  0.59123480  0.57893140  0.51353697    -0.16200
C1100       C  0.59333825  0.91296227  0.50665726    -0.16200
C1101       C  0.94114361  0.91259470  0.50961494    -0.16200
C1102       C  0.94511664  0.57869230  0.51838644    -0.16200
H1103       H  0.66959336  0.54258793  0.53701383     0.16700
H1104       H  0.67242774  0.95220553  0.52826332     0.16700
H1105       H  0.87546066  0.54193372  0.54470659     0.16700
H1106       H  0.86697869  0.95210134  0.52954547     0.16700
H1107       H  0.55417681  0.66405314  0.49593360     0.15000
H1108       H  0.97546074  0.66393079  0.49937029     0.15000
H1109       H  0.55558560  0.82599934  0.49030237     0.15000
H1110       H  0.97338445  0.82442589  0.49490236     0.15000
H1111       H  0.55006777  0.49469696  0.50194442     0.28300
H1112       H  0.98266475  0.49487224  0.50534151     0.28300
N1113       N  0.92020851  0.51050683  0.74009255    -0.34500
N1114       N  0.48418612  0.58095688  0.74488304    -0.55000
N1115       N  0.54742441  0.51038125  0.75148387    -0.34500
N1116       N  0.48483030  0.94135764  0.74793122    -0.55000
C1117       C  0.89719051  0.54716434  0.73115465     0.29100
C1118       C  0.89861001  0.97226219  0.73202989     0.29100
C1119       C  0.57157093  0.54723319  0.74828286     0.29100
C1120       C  0.57164839  0.97505114  0.74964912     0.29100
C1121       C  0.95000877  0.60859283  0.74383641     0.37700
C1122       C  0.51802036  0.60786884  0.75182698     0.37700
C1123       C  0.95094703  0.91271174  0.74659871     0.37700
C1124       C  0.51857458  0.91528290  0.75521961     0.37700
C1125       C  0.85989946  0.53221362  0.71623172    -0.19800
C1126       C  0.86194560  0.98541983  0.71614676    -0.19800
C1127       C  0.61136258  0.53317310  0.74325940    -0.19800
C1128       C  0.61084103  0.98842075  0.74310024    -0.19800
C1129       C  0.96215049  0.65341043  0.75106545    -0.20800
C1130       C  0.50600620  0.65240880  0.75764629    -0.20800
C1131       C  0.96291004  0.86896404  0.75470787    -0.20800
C1132       C  0.50647307  0.87155296  0.76150964    -0.20800
C1133       C  0.90841594  0.59378862  0.73676866    -0.16200
C1134       C  0.90965553  0.92637892  0.73817245    -0.16200
C1135       C  0.56008274  0.92956777  0.75411900    -0.16200
C1136       C  0.55963844  0.59328019  0.75158841    -0.16200
H1137       H  0.83503993  0.55293901  0.70612032     0.16700
H1138       H  0.83766513  0.96346949  0.70536454     0.16700
H1139       H  0.63796264  0.55439626  0.74022741     0.16700
H1140       H  0.63717540  0.96683946  0.73946271     0.16700
H1141       H  0.94244288  0.68292503  0.75342318     0.15000
H1142       H  0.52590962  0.68173806  0.76344859     0.15000
H1143       H  0.94310804  0.83972947  0.75702458     0.15000
H1144       H  0.52632413  0.84288079  0.76749043     0.15000
H1145       H  0.94754450  0.51147514  0.75426429     0.28300
H1146       H  0.51797606  0.51087144  0.75882801     0.28300
O1147       O  0.68169506  0.68700352  0.50937540    -0.76400
C1148       C  0.77029567  0.74996250  0.57625243     0.84700
O1149       O  0.70792501  0.83147089  0.97305983    -0.77500
O1150       O  0.85166627  0.80257494  0.51199524    -0.79000
O1151       O  0.81066560  0.64115893  0.97468558    -0.78800
O1152       O  0.70811381  0.64142199  0.97261520    -0.77400
Zn1153     Zn  0.71658007  0.74478790  0.51633867     1.55700
O1154       O  0.85252621  0.68581325  0.51433806    -0.78800
Cd1155     Cd  0.75845018  0.68093694  0.96528574     1.59700
Cd1156     Cd  0.75798962  0.79107581  0.96525736     1.59600
O1157       O  0.75272994  0.69574161  0.92030899    -0.78800
O1158       O  0.76427618  0.74175540  0.49279512    -1.89300
Cd1159     Cd  0.81731119  0.74459812  0.52005608     1.59900
O1160       O  0.75235480  0.77186312  0.92013564    -0.78700
O1161       O  0.80461887  0.74834801  0.56449465    -0.77400
C1162       C  0.68438853  0.83461560  0.48968399     0.85200
C1163       C  0.68425047  0.65021624  0.49360910     0.84800
O1164       O  0.73547036  0.74908140  0.56038756    -0.76300
C1165       C  0.84269393  0.64542746  0.99335748     0.85600
O1166       O  0.68154518  0.80133291  0.50701270    -0.76400
C1167       C  0.75051110  0.73297561  0.90638284     0.85700
C1168       C  0.84134138  0.83019063  0.99415430     0.86100
O1169       O  0.80981561  0.83222503  0.97501859    -0.78900
O1170       O  0.64643549  0.81455331  0.71389266    -0.76400
C1171       C  0.73616311  0.75733253  0.65593705     0.84700
O1172       O  0.67069562  0.67440938  0.75509579    -0.77500
O1173       O  0.81701293  0.70161062  0.73001943    -0.79000
O1174       O  0.77726990  0.86112194  0.75747756    -0.78800
O1175       O  0.67180095  0.84950435  0.75647153    -0.77400
Zn1176     Zn  0.68324904  0.76025546  0.70855974     1.55700
O1177       O  0.81762645  0.81836782  0.73010115    -0.78800
Cd1178     Cd  0.72878112  0.81739345  0.76486024     1.59700
Cd1179     Cd  0.72791382  0.70672454  0.76460053     1.59600
O1180       O  0.73570783  0.80212629  0.80971387    -0.78800
O1181       O  0.73036052  0.76088536  0.73886654    -1.89300
Cd1182     Cd  0.78286562  0.75961233  0.71872529     1.59900
O1183       O  0.73413963  0.72599400  0.80973066    -0.78700
O1184       O  0.77035927  0.75741744  0.67257414    -0.77400
C1185       C  0.64264796  0.67815842  0.73336846     0.85200
C1186       C  0.64377865  0.84461465  0.73464840     0.84800
O1187       O  0.70121771  0.75856086  0.66681462    -0.76300
C1188       C  0.81032368  0.85543329  0.74441882     0.85600
O1189       O  0.64556113  0.70688005  0.71310212    -0.76400
C1190       C  0.73703080  0.76481496  0.82354969     0.85700
C1191       C  0.80959231  0.66611029  0.74440389     0.86100
O1192       O  0.77651893  0.66201187  0.75751440    -0.78900
C1193       C  0.74542364  0.73019084  0.87333863    -0.14300
C1194       C  0.74216870  0.76748241  0.85658626    -0.29500
H1195       H  0.74413811  0.69639535  0.86254117     0.14700
H1196       H  0.74352772  0.80127003  0.86739444     0.15300
C1197       C  0.77121514  0.75274365  0.60918126    -0.14300
C1198       C  0.73620651  0.75550361  0.62311121    -0.29500
H1199       H  0.80127842  0.75225005  0.62219164     0.14700
H1200       H  0.70621248  0.75599915  0.61000218     0.15300
C1201       C  0.59387692  0.89545373  0.75717784    -0.14300
C1202       C  0.60685507  0.87413508  0.73298399    -0.26900
H1203       H  0.61041186  0.89133992  0.77905706     0.14700
H1204       H  0.58954842  0.87829140  0.71135409     0.15300
C1205       C  0.87718680  0.88987249  0.73394858    -0.14300
C1206       C  0.84106324  0.89312632  0.74643381    -0.29500
H1207       H  0.88462174  0.85835210  0.72220758     0.14700
H1208       H  0.83440849  0.92391975  0.75924963     0.15300
C1209       C  0.84026083  0.62846861  0.74635086    -0.14300
C1210       C  0.87578449  0.62983822  0.73300831    -0.29500
H1211       H  0.83401453  0.59938990  0.75964503     0.14700
H1212       H  0.88264693  0.65971610  0.72064073     0.15300
C1213       C  0.59354129  0.62761947  0.75504743    -0.14300
C1214       C  0.60530502  0.64894653  0.73135764    -0.29500
H1215       H  0.61176536  0.63109831  0.77653931     0.14700
H1216       H  0.58682424  0.64491970  0.70997360     0.15300
C1217       C  0.62472240  0.87571623  0.50838827    -0.14300
C1218       C  0.65440728  0.87269523  0.48955770    -0.29500
H1219       H  0.62097471  0.84845760  0.52371713     0.14700
H1220       H  0.65137053  0.89293468  0.97542935     0.15300
C1221       C  0.90447760  0.87009146  0.01661446    -0.14300
C1222       C  0.87164881  0.86808081  0.99600551    -0.29500
H1223       H  0.91736328  0.84947392  0.52820121     0.14700
H1224       H  0.86711220  0.89496936  0.97995664     0.15300
C1225       C  0.87338364  0.60798300  0.99454316    -0.14300
C1226       C  0.90762761  0.60870796  0.01392979    -0.29500
H1227       H  0.86774456  0.57888796  0.97904947     0.14700
H1228       H  0.91921857  0.64512134  0.53275801     0.15300
C1229       C  0.62322830  0.61553050  0.51345381    -0.14300
C1230       C  0.65366396  0.61307518  0.49517166    -0.29500
H1231       H  0.61957054  0.64642971  0.52699172     0.14700
H1232       H  0.65024211  0.58121743  0.97385669     0.15300
loop_ 
_geom_bond_atom_site_label_1 
_geom_bond_atom_site_label_2 
_geom_bond_distance 
_geom_bond_site_symmetry_2 
_ccdc_geom_bond_type 
N1           H33   1.040       .  S
N1            C5   1.354   1_565  A
N1          C314   1.355       .  A
N2           C10   1.352       .  A
N2          C625   1.352       .  A
N3           H34   1.040   1_554  S
N3            C7   1.355   1_565  A
N3          C316   1.354       .  A
N4           C12   1.353       .  A
N4          C627   1.352   1_554  A
C5           C13   1.387       .  A
C5           C21   1.418       .  A
C6          N309   1.354       .  A
C6           C22   1.417       .  A
C6           C14   1.387       .  A
C7           C15   1.387       .  A
C7           C24   1.417       .  A
C8          N311   1.355       .  A
C8           C23   1.418       .  A
C8           C16   1.387       .  A
C9          N618   1.352       .  A
C9           C21   1.413       .  A
C9           C17   1.387       .  A
C10          C24   1.411       .  A
C10          C18   1.386   1_554  A
C11         N620   1.352       .  A
C11          C19   1.387       .  A
C11          C22   1.412       .  A
C12          C20   1.386   1_554  A
C12          C23   1.411       .  A
C13         C322   1.376   1_545  A
C13          H25   1.082       .  S
C14         C321   1.376       .  A
C14          H26   1.082       .  S
C15         C324   1.375   1_545  A
C15          H27   1.082       .  S
C16         C323   1.376       .  A
C16          H28   1.082       .  S
C17         C634   1.369   1_455  A
C17          H29   1.082       .  S
C18         C633   1.369       .  A
C18          H30   1.082       .  S
C19         C636   1.369   1_455  A
C19          H31   1.082       .  S
C20         C635   1.369       .  A
C20          H32   1.082       .  S
C21         C151   1.489       .  S
C22         C139   1.487       .  S
C23         C297   1.491       .  S
C24         C302   1.490       .  S
N35          H67   1.042       .  S
N35          C39   1.356       .  A
N35         C348   1.356   1_545  A
N36          C44   1.353   1_655  A
N36         C659   1.350       .  A
N37          H68   1.039       .  S
N37          C41   1.351       .  A
N37         C350   1.350   1_545  A
N38          C46   1.352   1_655  A
N38         C661   1.350       .  A
C39          C47   1.386       .  A
C39          C55   1.419       .  A
C40         N343   1.354       .  A
C40          C56   1.419       .  A
C40          C48   1.387       .  A
C41          C49   1.387       .  A
C41          C58   1.406       .  A
C42         N345   1.350       .  A
C42          C57   1.408       .  A
C42          C50   1.387       .  A
C43         N652   1.352       .  A
C43          C55   1.415       .  A
C43          C51   1.389       .  A
C44          C58   1.410       .  A
C44          C52   1.384       .  A
C45         N654   1.351       .  A
C45          C53   1.388       .  A
C45          C56   1.416       .  A
C46          C54   1.384       .  A
C46          C57   1.409       .  A
C47         C356   1.376   1_545  A
C47          H59   1.082       .  S
C48         C355   1.376       .  A
C48          H60   1.082       .  S
C49         C358   1.370   1_545  A
C49          H61   1.082       .  S
C50         C357   1.370       .  A
C50          H62   1.082       .  S
C51         C668   1.374       .  A
C51          H63   1.082       .  S
C52         C667   1.374   1_455  A
C52          H64   1.082       .  S
C53         C670   1.375       .  A
C53          H65   1.082       .  S
C54         C669   1.374   1_455  A
C54          H66   1.082       .  S
C55         C132   1.492       .  S
C56         C127   1.492       .  S
C57         C123   1.477       .  S
C58         C135   1.480       .  S
O69          C85   1.276   1_554  A
O69         Zn75   2.029       .  S
C70         C119   1.481       .  S
C70          O86   1.274       .  A
C70          O83   1.275       .  A
O71         C238   1.274       .  A
O71         Cd78   2.076       .  S
O72         C244   1.279   1_554  A
O72         Cd81   2.094       .  S
O73          C87   1.272       .  A
O73         Cd77   2.058       .  S
O74         C239   1.271       .  A
O74         Cd77   2.054       .  S
Zn75         O86   2.011       .  S
Zn75         O88   2.026       .  S
Zn75         O80   1.950   1_554  S
O76         C241   1.279   1_554  A
O76         Cd81   2.091       .  S
Cd77         O79   2.071       .  S
Cd77        O234   1.998       .  S
Cd78         O82   2.097       .  S
Cd78         O91   2.072       .  S
Cd78        O234   2.008       .  S
O79          C89   1.273       .  A
O80         Cd81   2.013   1_556  S
O80        Cd231   2.003       .  S
O80        Cd232   2.002       .  S
Cd81         O83   2.087       .  S
O82          C89   1.279       .  A
C84         C140   1.476       .  S
C84          O88   1.276   1_556  A
C84         O225   1.272       .  A
C85         C152   1.477       .  S
C85         O228   1.273       .  A
C87         C147   1.475       .  S
C87         O230   1.278       .  A
C89         C115   1.483       .  S
C90         C144   1.478       .  S
C90          O91   1.275       .  A
C90         O226   1.278       .  A
O92         C108   1.272       .  A
O92         Zn98   2.012       .  S
C93         C120   1.478       .  S
C93         O109   1.274       .  A
C93         O106   1.274       .  A
O94         C107   1.278       .  A
O94        Cd101   2.083       .  S
O95         C113   1.276       .  A
O95        Cd104   2.064       .  S
O96         C110   1.276       .  A
O96        Cd100   2.077       .  S
O97         C108   1.275       .  A
O97        Cd100   2.064       .  S
Zn98        O109   2.022       .  S
Zn98        O111   2.005       .  S
Zn98        O103   1.946       .  S
O99         C110   1.276       .  A
O99        Cd104   2.073       .  S
Cd100       O102   2.067       .  S
Cd100       O103   1.993       .  S
Cd101       O105   2.093       .  S
Cd101       O114   2.094       .  S
Cd101       O103   2.004       .  S
O102        C112   1.273       .  A
O103       Cd104   1.995       .  S
Cd104       O106   2.075       .  S
O105        C112   1.278       .  A
C107        C136   1.473       .  S
C107        O111   1.271       .  A
C108        C124   1.470       .  S
C110        C128   1.477       .  S
C112        C116   1.482       .  S
C113        C131   1.482       .  S
C113        O114   1.278       .  A
C115        C116   1.344       .  D
C115        H117   1.087       .  S
C116        H118   1.087       .  S
C119        C120   1.348       .  D
C119        H121   1.086       .  S
C120        H122   1.087       .  S
C123        C124   1.340       .  D
C123        H125   1.086       .  S
C124        H126   1.087       .  S
C127        C128   1.346       .  D
C127        H129   1.086       .  S
C128        H130   1.087       .  S
C131        C132   1.348       .  D
C131        H133   1.087       .  S
C132        H134   1.087       .  S
C135        C136   1.339       .  D
C135        H137   1.086       .  S
C136        H138   1.087       .  S
C139        C140   1.342   1_554  D
C139        H141   1.087       .  S
C140        H296   1.087       .  S
H142        C294   1.087       .  S
C143        C177   1.488       .  S
C143        C144   1.343       .  D
C143        H299   1.087       .  S
C144        H146   1.087       .  S
H145        C297   1.087       .  S
C147        C148   1.341       .  D
C147        H149   1.087       .  S
C148        C178   1.488       .  S
C148        H304   1.087       .  S
H150        C302   1.087       .  S
C151        C152   1.343   1_554  D
C151        H153   1.087       .  S
C152        H308   1.087       .  S
H154        C306   1.087       .  S
N155        H187   1.038       .  S
N155        C468   1.356       .  A
N155        C159   1.354   1_565  A
N156        C779   1.351       .  A
N156        C164   1.352       .  A
N157        H188   1.040       .  S
N157        C470   1.354       .  A
N157        C161   1.353   1_565  A
N158        C781   1.351       .  A
N158        C166   1.352       .  A
C159        C167   1.388       .  A
C159        C175   1.419       .  A
C160        N463   1.354       .  A
C160        C176   1.417       .  A
C160        C168   1.386       .  A
C161        C169   1.387       .  A
C161        C178   1.417       .  A
C162        N465   1.355       .  A
C162        C177   1.416       .  A
C162        C170   1.386       .  A
C163        N772   1.352       .  A
C163        C175   1.412       .  A
C163        C171   1.387       .  A
C164        C178   1.410       .  A
C164        C172   1.386       .  A
C165        N774   1.352       .  A
C165        C173   1.386       .  A
C165        C176   1.412       .  A
C166        C174   1.386       .  A
C166        C177   1.410       .  A
C167        C476   1.376   1_545  A
C167        H179   1.082       .  S
C168        C475   1.378       .  A
C168        H180   1.082       .  S
C169        C478   1.377   1_545  A
C169        H181   1.082       .  S
C170        C477   1.377       .  A
C170        H182   1.082       .  S
C171        C788   1.369   1_455  A
C171        H183   1.082       .  S
C172        C787   1.370       .  A
C172        H184   1.082       .  S
C173        C790   1.370   1_455  A
C173        H185   1.082       .  S
C174        C789   1.369       .  A
C174        H186   1.082       .  S
C175        C305   1.487       .  S
C176        C293   1.489       .  S
N189        H221   1.041       .  S
N189        C502   1.356   1_545  A
N189        C193   1.355       .  A
N190        C813   1.352       .  A
N190        C198   1.353   1_655  A
N191        H222   1.037       .  S
N191        C504   1.350   1_545  A
N191        C195   1.350       .  A
N192        C815   1.352       .  A
N192        C200   1.354   1_655  A
C193        C201   1.387       .  A
C193        C209   1.419       .  A
C194        N497   1.356       .  A
C194        C210   1.420       .  A
C194        C202   1.387       .  A
C195        C203   1.388       .  A
C195        C212   1.408       .  A
C196        N499   1.351       .  A
C196        C211   1.409       .  A
C196        C204   1.388       .  A
C197        N806   1.350       .  A
C197        C209   1.413       .  A
C197        C205   1.389       .  A
C198        C212   1.411       .  A
C198        C206   1.384       .  A
C199        N808   1.352       .  A
C199        C207   1.388       .  A
C199        C210   1.416       .  A
C200        C208   1.384       .  A
C200        C211   1.413       .  A
C201        C510   1.375   1_545  A
C201        H213   1.082       .  S
C202        C509   1.375       .  A
C202        H214   1.082       .  S
C203        C512   1.369   1_545  A
C203        H215   1.082       .  S
C204        C511   1.370       .  A
C204        H216   1.082       .  S
C205        C822   1.374       .  A
C205        H217   1.082       .  S
C206        C821   1.373   1_455  A
C206        H218   1.082       .  S
C207        C824   1.374       .  A
C207        H219   1.082       .  S
C208        C823   1.373   1_455  A
C208        H220   1.082       .  S
C209        C286   1.491       .  S
C210        C281   1.494       .  S
C211        C277   1.480       .  S
C212        C289   1.478       .  S
O223        C239   1.277       .  A
O223       Zn229   2.032       .  S
C224        C273   1.483       .  S
C224        O240   1.274       .  A
C224        O237   1.275       .  A
O225       Cd232   2.063       .  S
O226       Cd235   2.079       .  S
O227        C241   1.273       .  A
O227       Cd231   2.064       .  S
O228       Cd231   2.070       .  S
Zn229       O240   2.015       .  S
Zn229       O242   2.025       .  S
Zn229       O234   1.951       .  S
O230       Cd235   2.088       .  S
Cd231       O233   2.084       .  S
Cd232       O236   2.074       .  S
Cd232       O245   2.061       .  S
O233        C243   1.276       .  A
O234       Cd235   2.009       .  S
Cd235       O237   2.088       .  S
O236        C243   1.275       .  A
C238        C294   1.480       .  S
C238        O242   1.276       .  A
C239        C306   1.473       .  S
C241        C301   1.477       .  S
C243        C269   1.481       .  S
C244        C298   1.479       .  S
C244        O245   1.272       .  A
O246        C262   1.271       .  A
O246       Zn252   2.004       .  S
C247        C274   1.480       .  S
C247        O263   1.274       .  A
C247        O260   1.275       .  A
O248        C261   1.276       .  A
O248       Cd255   2.072       .  S
O249        C267   1.277       .  A
O249       Cd258   2.074       .  S
O250        C264   1.277       .  A
O250       Cd254   2.083       .  S
O251        C262   1.277       .  A
O251       Cd254   2.079       .  S
Zn252       O263   2.021       .  S
Zn252       O265   2.006       .  S
Zn252       O257   1.944       .  S
O253        C264   1.278       .  A
O253       Cd258   2.077       .  S
Cd254       O256   2.085       .  S
Cd254       O257   1.997       .  S
Cd255       O259   2.074       .  S
Cd255       O268   2.073       .  S
Cd255       O257   1.998       .  S
O256        C266   1.275       .  A
O257       Cd258   1.997       .  S
Cd258       O260   2.084       .  S
O259        C266   1.274       .  A
C261        C290   1.471       .  S
C261        O265   1.271       .  A
C262        C278   1.471       .  S
C264        C282   1.481       .  S
C266        C270   1.481       .  S
C267        C285   1.477       .  S
C267        O268   1.276       .  A
C269        C270   1.348       .  D
C269        H271   1.087       .  S
C270        H272   1.087       .  S
C273        C274   1.348       .  D
C273        H275   1.086       .  S
C274        H276   1.087       .  S
C277        C278   1.339       .  D
C277        H279   1.086       .  S
C278        H280   1.087       .  S
C281        C282   1.347       .  D
C281        H283   1.087       .  S
C282        H284   1.087       .  S
C285        C286   1.345       .  D
C285        H287   1.087       .  S
C286        H288   1.087       .  S
C289        C290   1.339       .  D
C289        H291   1.086       .  S
C290        H292   1.087       .  S
C293        C294   1.344       .  D
C293        H295   1.087       .  S
C297        C298   1.342   1_554  D
C298        H300   1.087       .  S
C301        C302   1.342   1_556  D
C301        H303   1.087       .  S
C305        C306   1.341       .  D
C305        H307   1.087       .  S
N309        H341   1.038       .  S
N309        C313   1.354       .  A
N310        C933   1.352       .  A
N310        C318   1.351       .  A
N311        H342   1.039   1_554  S
N311        C315   1.354       .  A
N312        C935   1.351       .  A
N312        C320   1.352       .  A
C313        C321   1.387       .  A
C313        C329   1.418       .  A
C314        C330   1.418       .  A
C314        C322   1.387       .  A
C315        C323   1.387       .  A
C315        C332   1.417       .  A
C316        C331   1.416       .  A
C316        C324   1.386       .  A
C317        N926   1.352       .  A
C317        C329   1.412       .  A
C317        C325   1.387       .  A
C318        C332   1.410       .  A
C318        C326   1.387   1_554  A
C319        N928   1.353       .  A
C319        C327   1.387       .  A
C319        C330   1.412       .  A
C320        C328   1.387   1_554  A
C320        C331   1.410       .  A
C321        H333   1.082       .  S
C322        H334   1.082       .  S
C323        H335   1.082       .  S
C324        H336   1.082       .  S
C325        C942   1.369   1_455  A
C325        H337   1.082   1_554  S
C326        C941   1.369       .  A
C326        H338   1.082       .  S
C327        C944   1.369   1_455  A
C327        H339   1.082   1_554  S
C328        C943   1.370       .  A
C328        H340   1.082       .  S
C329        C459   1.488       .  S
C330        C447   1.490       .  S
C331        C605   1.489       .  S
C332        C610   1.486       .  S
N343        H375   1.041       .  S
N343        C347   1.357       .  A
N344        C967   1.351       .  A
N344        C352   1.354   1_655  A
N345        H376   1.039       .  S
N345        C349   1.350       .  A
N346        C969   1.351       .  A
N346        C354   1.353   1_655  A
C347        C355   1.386       .  A
C347        C363   1.419       .  A
C348        C364   1.422       .  A
C348        C356   1.388       .  A
C349        C357   1.387       .  A
C349        C366   1.408       .  A
C350        C365   1.407       .  A
C350        C358   1.388       .  A
C351        N960   1.351       .  A
C351        C363   1.413       .  A
C351        C359   1.387       .  A
C352        C366   1.413       .  A
C352        C360   1.384       .  A
C353        N962   1.352       .  A
C353        C361   1.388       .  A
C353        C364   1.416       .  A
C354        C362   1.384       .  A
C354        C365   1.412       .  A
C355        H367   1.082       .  S
C356        H368   1.082       .  S
C357        H369   1.082       .  S
C358        H370   1.082       .  S
C359        C976   1.375       .  A
C359        H371   1.082       .  S
C360        C975   1.375   1_455  A
C360        H372   1.082       .  S
C361        C978   1.375       .  A
C361        H373   1.082       .  S
C362        C977   1.375   1_455  A
C362        H374   1.082       .  S
C363        C440   1.495       .  S
C364        C435   1.496       .  S
C365        C431   1.479       .  S
C366        C443   1.483       .  S
O377        C393   1.278   1_554  A
O377       Zn383   2.037       .  S
C378        C427   1.481       .  S
C378        O394   1.275       .  A
C378        O391   1.274       .  A
O379        C546   1.274       .  A
O379       Cd386   2.071       .  S
O380        C552   1.277   1_554  A
O380       Cd389   2.078       .  S
O381        C395   1.272       .  A
O381       Cd385   2.057       .  S
O382        C547   1.271       .  A
O382       Cd385   2.060       .  S
Zn383       O394   2.024       .  S
Zn383       O396   2.036       .  S
Zn383       O388   1.953   1_554  S
O384        C549   1.277   1_554  A
O384       Cd389   2.080       .  S
Cd385       O387   2.071       .  S
Cd385       O542   2.001       .  S
Cd386       O390   2.090       .  S
Cd386       O399   2.071       .  S
Cd386       O542   2.004       .  S
O387        C397   1.274       .  A
O388       Cd539   2.001       .  S
O388       Cd540   2.003       .  S
O388       Cd389   2.009   1_556  S
Cd389       O391   2.076       .  S
O390        C397   1.278       .  A
C392        C448   1.478       .  S
C392        O533   1.273       .  A
C392        O396   1.278   1_556  A
C393        C460   1.477       .  S
C393        O536   1.273       .  A
C395        C455   1.474       .  S
C395        O538   1.278       .  A
C397        C423   1.481       .  S
C398        C452   1.480       .  S
C398        O534   1.278       .  A
C398        O399   1.274       .  A
O400        C416   1.270       .  A
O400       Zn406   2.001       .  S
C401        C428   1.478       .  S
C401        O417   1.272       .  A
C401        O414   1.277       .  A
O402        C415   1.277       .  A
O402       Cd409   2.088       .  S
O403        C421   1.279       .  A
O403       Cd412   2.088       .  S
O404        C418   1.277       .  A
O404       Cd408   2.079       .  S
O405        C416   1.277       .  A
O405       Cd408   2.078       .  S
Zn406       O417   2.010       .  S
Zn406       O419   2.005       .  S
Zn406       O411   1.943       .  S
O407        C418   1.279       .  A
O407       Cd412   2.088       .  S
Cd408       O410   2.072       .  S
Cd408       O411   1.997       .  S
Cd409       O413   2.087       .  S
Cd409       O422   2.085       .  S
Cd409       O411   2.000       .  S
O410        C420   1.273       .  A
O411       Cd412   2.004       .  S
Cd412       O414   2.090       .  S
O413        C420   1.277       .  A
C415        C444   1.473       .  S
C415        O419   1.271       .  A
C416        C432   1.471       .  S
C418        C436   1.481       .  S
C420        C424   1.482       .  S
C421        C439   1.483       .  S
C421        O422   1.277       .  A
C423        C424   1.345       .  D
C423        H425   1.087       .  S
C424        H426   1.087       .  S
C427        C428   1.345       .  D
C427        H429   1.086       .  S
C428        H430   1.087       .  S
C431        C432   1.339       .  D
C431        H433   1.086       .  S
C432        H434   1.087       .  S
C435        C436   1.346       .  D
C435        H437   1.087       .  S
C436        H438   1.087       .  S
C439        C440   1.346       .  D
C439        H441   1.087       .  S
C440        H442   1.087       .  S
C443        C444   1.341       .  D
C443        H445   1.086       .  S
C444        H446   1.087       .  S
C447        C448   1.343   1_554  D
C447        H449   1.087       .  S
C448        H604   1.087       .  S
H450        C602   1.087       .  S
C451        C485   1.490       .  S
C451        C452   1.343       .  D
C451        H607   1.087       .  S
C452        H454   1.087       .  S
H453        C605   1.087       .  S
C455        C456   1.340       .  D
C455        H457   1.087       .  S
C456        C486   1.486       .  S
C456        H612   1.087       .  S
H458        C610   1.087       .  S
C459        C460   1.342   1_554  D
C459        H461   1.087       .  S
C460        H616   1.087       .  S
H462        C614   1.087       .  S
N463        H495   1.039       .  S
N463        C467   1.354       .  A
N464       C1087   1.352       .  A
N464        C472   1.350       .  A
N465        H496   1.040       .  S
N465        C469   1.354       .  A
N466       C1089   1.352       .  A
N466        C474   1.352       .  A
C467        C475   1.388       .  A
C467        C483   1.418       .  A
C468        C484   1.417       .  A
C468        C476   1.386       .  A
C469        C477   1.387       .  A
C469        C486   1.417       .  A
C470        C485   1.416       .  A
C470        C478   1.386       .  A
C471       N1080   1.351       .  A
C471        C483   1.411       .  A
C471        C479   1.387       .  A
C472        C486   1.409       .  A
C472        C480   1.387       .  A
C473       N1082   1.353       .  A
C473        C481   1.386       .  A
C473        C484   1.411       .  A
C474        C482   1.386       .  A
C474        C485   1.410       .  A
C475        H487   1.082       .  S
C476        H488   1.082       .  S
C477        H489   1.082       .  S
C478        H490   1.082       .  S
C479       C1096   1.370   1_455  A
C479        H491   1.082       .  S
C480       C1095   1.369       .  A
C480        H492   1.082       .  S
C481       C1098   1.369   1_455  A
C481        H493   1.082       .  S
C482       C1097   1.370       .  A
C482        H494   1.082       .  S
C483        C613   1.488       .  S
C484        C601   1.491       .  S
N497        H529   1.040       .  S
N497        C501   1.356       .  A
N498       C1121   1.352       .  A
N498        C506   1.354   1_655  A
N499        H530   1.037       .  S
N499        C503   1.350       .  A
N500       C1123   1.351       .  A
N500        C508   1.352   1_655  A
C501        C509   1.387       .  A
C501        C517   1.420       .  A
C502        C518   1.419       .  A
C502        C510   1.387       .  A
C503        C511   1.388       .  A
C503        C520   1.409       .  A
C504        C519   1.408       .  A
C504        C512   1.388       .  A
C505       N1114   1.352       .  A
C505        C517   1.416       .  A
C505        C513   1.388       .  A
C506        C520   1.413       .  A
C506        C514   1.384       .  A
C507       N1116   1.351       .  A
C507        C515   1.388       .  A
C507        C518   1.414       .  A
C508        C516   1.384       .  A
C508        C519   1.410       .  A
C509        H521   1.082       .  S
C510        H522   1.082       .  S
C511        H523   1.082       .  S
C512        H524   1.082       .  S
C513       C1130   1.373       .  A
C513        H525   1.082       .  S
C514       C1129   1.373   1_455  A
C514        H526   1.082       .  S
C515       C1132   1.374       .  A
C515        H527   1.082       .  S
C516       C1131   1.373   1_455  A
C516        H528   1.082       .  S
C517        C594   1.496       .  S
C518        C589   1.492       .  S
C519        C585   1.477       .  S
C520        C597   1.479       .  S
O531        C547   1.277       .  A
O531       Zn537   2.035       .  S
C532        C581   1.481       .  S
C532        O548   1.274       .  A
C532        O545   1.275       .  A
O533       Cd540   2.067       .  S
O534       Cd543   2.088       .  S
O535        C549   1.272       .  A
O535       Cd539   2.060       .  S
O536       Cd539   2.063       .  S
Zn537       O548   2.011       .  S
Zn537       O550   2.035       .  S
Zn537       O542   1.951       .  S
O538       Cd543   2.087       .  S
Cd539       O541   2.079       .  S
Cd540       O544   2.085       .  S
Cd540       O553   2.066       .  S
O541        C551   1.275       .  A
O542       Cd543   2.014       .  S
Cd543       O545   2.084       .  S
O544        C551   1.277       .  A
C546        C602   1.480       .  S
C546        O550   1.277       .  A
C547        C614   1.476       .  S
C549        C609   1.474       .  S
C551        C577   1.483       .  S
C552        C606   1.476       .  S
C552        O553   1.273       .  A
O554        C570   1.271       .  A
O554       Zn560   2.007       .  S
C555        C582   1.477       .  S
C555        O571   1.273       .  A
C555        O568   1.275       .  A
O556        C569   1.277       .  A
O556       Cd563   2.076       .  S
O557        C575   1.278       .  A
O557       Cd566   2.078       .  S
O558        C572   1.276       .  A
O558       Cd562   2.080       .  S
O559        C570   1.276       .  A
O559       Cd562   2.070       .  S
Zn560       O571   2.016       .  S
Zn560       O573   2.003       .  S
Zn560       O565   1.946       .  S
O561        C572   1.278       .  A
O561       Cd566   2.077       .  S
Cd562       O564   2.076       .  S
Cd562       O565   1.994       .  S
Cd563       O567   2.085       .  S
Cd563       O576   2.083       .  S
Cd563       O565   1.998       .  S
O564        C574   1.274       .  A
O565       Cd566   1.999       .  S
Cd566       O568   2.083       .  S
O567        C574   1.276       .  A
C569        C598   1.471       .  S
C569        O573   1.271       .  A
C570        C586   1.470       .  S
C572        C590   1.479       .  S
C574        C578   1.482       .  S
C575        C593   1.481       .  S
C575        O576   1.277       .  A
C577        C578   1.347       .  D
C577        H579   1.087       .  S
C578        H580   1.087       .  S
C581        C582   1.347       .  D
C581        H583   1.087       .  S
C582        H584   1.087       .  S
C585        C586   1.340       .  D
C585        H587   1.086       .  S
C586        H588   1.087       .  S
C589        C590   1.346       .  D
C589        H591   1.087       .  S
C590        H592   1.087       .  S
C593        C594   1.347       .  D
C593        H595   1.087       .  S
C594        H596   1.086       .  S
C597        C598   1.339       .  D
C597        H599   1.086       .  S
C598        H600   1.087       .  S
C601        C602   1.343       .  D
C601        H603   1.087       .  S
C605        C606   1.342   1_554  D
C606        H608   1.087       .  S
C609        C610   1.340   1_556  D
C609        H611   1.087       .  S
C613        C614   1.341       .  D
C613        H615   1.087       .  S
N617        H649   1.040   1_554  S
N617        C930   1.354       .  A
N617        C621   1.354   1_565  A
N618        C626   1.353   1_455  A
N619        H650   1.038       .  S
N619        C932   1.354       .  A
N619        C623   1.355   1_565  A
N620        C628   1.352   1_455  A
C621        C629   1.387       .  A
C621        C637   1.416       .  A
C622        N925   1.354       .  A
C622        C638   1.417       .  A
C622        C630   1.387       .  A
C623        C631   1.387       .  A
C623        C640   1.419       .  A
C624        N927   1.355       .  A
C624        C639   1.418       .  A
C624        C632   1.387       .  A
C625        C637   1.411       .  A
C625        C633   1.387   1_554  A
C626        C640   1.413       .  A
C626        C634   1.386       .  A
C627        C635   1.387       .  A
C627        C638   1.411   1_556  A
C628        C636   1.386       .  A
C628        C639   1.412       .  A
C629        C938   1.377   1_545  A
C629        H641   1.082       .  S
C630        C937   1.375       .  A
C630        H642   1.082       .  S
C631        C940   1.376   1_545  A
C631        H643   1.082       .  S
C632        C939   1.376       .  A
C632        H644   1.082       .  S
C633        H645   1.082       .  S
C634        H646   1.082       .  S
C635        H647   1.082       .  S
C636        H648   1.082       .  S
C637        C767   1.488       .  S
C638        C755   1.487       .  S
C639        C913   1.488       .  S
C640        C918   1.492       .  S
N651        H683   1.041       .  S
N651        C964   1.356   1_545  A
N651        C655   1.355       .  A
N652        C660   1.354       .  A
N653        H684   1.040       .  S
N653        C966   1.351   1_545  A
N653        C657   1.351       .  A
N654        C662   1.354       .  A
C655        C663   1.387       .  A
C655        C671   1.419       .  A
C656        N959   1.356       .  A
C656        C672   1.419       .  A
C656        C664   1.387       .  A
C657        C665   1.388       .  A
C657        C674   1.409       .  A
C658        N961   1.352       .  A
C658        C673   1.412       .  A
C658        C666   1.388       .  A
C659        C671   1.414       .  A
C659        C667   1.389       .  A
C660        C674   1.412       .  A
C660        C668   1.384       .  A
C661        C669   1.389       .  A
C661        C672   1.413       .  A
C662        C670   1.385       .  A
C662        C673   1.413       .  A
C663        C972   1.375   1_545  A
C663        H675   1.082       .  S
C664        C971   1.375       .  A
C664        H676   1.082       .  S
C665        C974   1.371   1_545  A
C665        H677   1.082       .  S
C666        C973   1.371       .  A
C666        H678   1.081       .  S
C667        H679   1.082       .  S
C668        H680   1.082       .  S
C669        H681   1.082       .  S
C670        H682   1.082       .  S
C671        C748   1.491       .  S
C672        C743   1.491       .  S
C673        C739   1.487       .  S
C674        C751   1.481       .  S
O685        C701   1.275   1_554  A
O685       Zn691   2.018       .  S
C686        C735   1.478       .  S
C686        O702   1.269       .  A
C686        O699   1.280       .  A
O687        C854   1.270       .  A
O687       Cd694   2.051       .  S
O688        C860   1.280   1_554  A
O688       Cd697   2.096       .  S
O689        C703   1.276       .  A
O689       Cd693   2.081       .  S
O690        C855   1.274       .  A
O690       Cd693   2.075       .  S
Zn691       O702   1.988       .  S
Zn691       O704   2.017       .  S
Zn691       O696   1.941   1_554  S
O692        C857   1.281   1_554  A
O692       Cd697   2.107       .  S
Cd693       O695   2.105       .  S
Cd693       O850   2.010       .  S
Cd694       O698   2.063       .  S
Cd694       O707   2.063       .  S
Cd694       O850   1.997       .  S
O695        C705   1.280       .  A
O696       Cd847   1.999       .  S
O696       Cd848   2.003       .  S
O696       Cd697   2.019   1_556  S
Cd697       O699   2.110       .  S
O698        C705   1.273       .  A
C700        C756   1.476       .  S
C700        O841   1.272       .  A
C700        O704   1.275   1_556  A
C701        C768   1.477       .  S
C701        O844   1.272       .  A
C703        C763   1.483       .  S
C703        O846   1.279       .  A
C705        C731   1.482       .  S
C706        C760   1.476       .  S
C706        O842   1.277       .  A
C706        O707   1.273       .  A
O708        C724   1.275       .  A
O708       Zn714   2.022       .  S
C709        C736   1.482       .  S
C709        O725   1.280       .  A
C709        O722   1.272       .  A
O710        C723   1.275       .  A
O710       Cd717   2.060       .  S
O711        C729   1.276       .  A
O711       Cd720   2.067       .  S
O712        C726   1.277       .  A
O712       Cd716   2.091       .  S
O713        C724   1.279       .  A
O713       Cd716   2.087       .  S
Zn714       O725   2.047       .  S
Zn714       O727   2.037       .  S
Zn714       O719   1.945       .  S
O715        C726   1.276       .  A
O715       Cd720   2.061       .  S
Cd716       O718   2.098       .  S
Cd716       O719   1.998       .  S
Cd717       O721   2.063       .  S
Cd717       O730   2.073       .  S
Cd717       O719   1.986       .  S
O718        C728   1.279       .  A
O719       Cd720   1.986       .  S
Cd720       O722   2.064       .  S
O721        C728   1.272       .  A
C723        C752   1.477       .  S
C723        O727   1.275       .  A
C724        C740   1.475       .  S
C726        C744   1.480       .  S
C728        C732   1.483       .  S
C729        C747   1.476       .  S
C729        O730   1.275       .  A
C731        C732   1.343       .  D
C731        H733   1.087       .  S
C732        H734   1.087       .  S
C735        C736   1.340       .  D
C735        H737   1.087       .  S
C736        H738   1.087       .  S
C739        C740   1.343       .  D
C739        H741   1.086       .  S
C740        H742   1.087       .  S
C743        C744   1.347       .  D
C743        H745   1.087       .  S
C744        H746   1.087       .  S
C747        C748   1.345       .  D
C747        H749   1.086       .  S
C748        H750   1.087       .  S
C751        C752   1.343       .  D
C751        H753   1.087       .  S
C752        H754   1.087       .  S
C755        C756   1.343   1_554  D
C755        H757   1.087       .  S
C756        H912   1.087       .  S
H758        C910   1.087       .  S
C759        C793   1.489       .  S
C759        C760   1.343       .  D
C759        H915   1.087       .  S
C760        H762   1.087       .  S
H761        C913   1.086       .  S
C763        C764   1.344       .  D
C763        H765   1.087       .  S
C764        C794   1.492       .  S
C764        H920   1.087       .  S
H766        C918   1.086       .  S
C767        C768   1.343   1_554  D
C767        H769   1.087       .  S
C768        H924   1.087       .  S
H770        C922   1.087       .  S
N771        H803   1.040       .  S
N771       C1084   1.354       .  A
N771        C775   1.355   1_565  A
N772        C780   1.353   1_455  A
N773        H804   1.038       .  S
N773       C1086   1.355       .  A
N773        C777   1.356   1_565  A
N774        C782   1.353   1_455  A
C775        C783   1.387       .  A
C775        C791   1.417       .  A
C776       N1079   1.353       .  A
C776        C792   1.417       .  A
C776        C784   1.387       .  A
C777        C785   1.386       .  A
C777        C794   1.418       .  A
C778       N1081   1.353       .  A
C778        C793   1.416       .  A
C778        C786   1.387       .  A
C779        C791   1.410       .  A
C779        C787   1.387       .  A
C780        C794   1.411       .  A
C780        C788   1.386       .  A
C781        C789   1.387       .  A
C781        C792   1.410       .  A
C782        C790   1.386       .  A
C782        C793   1.412       .  A
C783       C1092   1.378   1_545  A
C783        H795   1.082       .  S
C784       C1091   1.376       .  A
C784        H796   1.082       .  S
C785       C1094   1.377   1_545  A
C785        H797   1.082       .  S
C786       C1093   1.377       .  A
C786        H798   1.082       .  S
C787        H799   1.083       .  S
C788        H800   1.082       .  S
C789        H801   1.082       .  S
C790        H802   1.082       .  S
C791        C921   1.488       .  S
C792        C909   1.484       .  S
N805        H837   1.040       .  S
N805       C1118   1.356   1_545  A
N805        C809   1.356       .  A
N806        C814   1.352       .  A
N807        H838   1.038       .  S
N807       C1120   1.351   1_545  A
N807        C811   1.351       .  A
N808        C816   1.354       .  A
C809        C817   1.387       .  A
C809        C825   1.419       .  A
C810       N1113   1.356       .  A
C810        C826   1.421       .  A
C810        C818   1.387       .  A
C811        C819   1.387       .  A
C811        C828   1.409       .  A
C812       N1115   1.351       .  A
C812        C827   1.409       .  A
C812        C820   1.387       .  A
C813        C825   1.415       .  A
C813        C821   1.388       .  A
C814        C828   1.411       .  A
C814        C822   1.385       .  A
C815        C823   1.388       .  A
C815        C826   1.416       .  A
C816        C824   1.384       .  A
C816        C827   1.413       .  A
C817       C1126   1.375   1_545  A
C817        H829   1.082       .  S
C818       C1125   1.375       .  A
C818        H830   1.082       .  S
C819       C1128   1.370   1_545  A
C819        H831   1.082       .  S
C820       C1127   1.369       .  A
C820        H832   1.082       .  S
C821        H833   1.082       .  S
C822        H834   1.082       .  S
C823        H835   1.082       .  S
C824        H836   1.082       .  S
C825        C902   1.494       .  S
C826        C897   1.495       .  S
C827        C893   1.483       .  S
C828        C905   1.479       .  S
O839        C855   1.277       .  A
O839       Zn845   2.026       .  S
C840        C889   1.481       .  S
C840        O856   1.274       .  A
C840        O853   1.274       .  A
O841       Cd848   2.068       .  S
O842       Cd851   2.086       .  S
O843        C857   1.274       .  A
O843       Cd847   2.062       .  S
O844       Cd847   2.069       .  S
Zn845       O856   2.020       .  S
Zn845       O858   2.026       .  S
Zn845       O850   1.952       .  S
O846       Cd851   2.086       .  S
Cd847       O849   2.077       .  S
Cd848       O852   2.082       .  S
Cd848       O861   2.060       .  S
O849        C859   1.275       .  A
O850       Cd851   2.007       .  S
Cd851       O853   2.080       .  S
O852        C859   1.276       .  A
C854        C910   1.470       .  S
C854        O858   1.276       .  A
C855        C922   1.479       .  S
C857        C917   1.481       .  S
C859        C885   1.481       .  S
C860        C914   1.477       .  S
C860        O861   1.274       .  A
O862        C878   1.272       .  A
O862       Zn868   2.008       .  S
C863        C890   1.479       .  S
C863        O879   1.273       .  A
C863        O876   1.276       .  A
O864        C877   1.277       .  A
O864       Cd871   2.079       .  S
O865        C883   1.278       .  A
O865       Cd874   2.080       .  S
O866        C880   1.277       .  A
O866       Cd870   2.082       .  S
O867        C878   1.277       .  A
O867       Cd870   2.084       .  S
Zn868       O879   2.015       .  S
Zn868       O881   2.000       .  S
Zn868       O873   1.945       .  S
O869        C880   1.278       .  A
O869       Cd874   2.082       .  S
Cd870       O872   2.077       .  S
Cd870       O873   1.998       .  S
Cd871       O875   2.081       .  S
Cd871       O884   2.082       .  S
Cd871       O873   1.999       .  S
O872        C882   1.274       .  A
O873       Cd874   2.001       .  S
Cd874       O876   2.087       .  S
O875        C882   1.276       .  A
C877        C906   1.469       .  S
C877        O881   1.270       .  A
C878        C894   1.474       .  S
C880        C898   1.481       .  S
C882        C886   1.482       .  S
C883        C901   1.480       .  S
C883        O884   1.277       .  A
C885        C886   1.346       .  D
C885        H887   1.087       .  S
C886        H888   1.087       .  S
C889        C890   1.346       .  D
C889        H891   1.086       .  S
C890        H892   1.087       .  S
C893        C894   1.341       .  D
C893        H895   1.086       .  S
C894        H896   1.087       .  S
C897        C898   1.346       .  D
C897        H899   1.087       .  S
C898        H900   1.087       .  S
C901        C902   1.346       .  D
C901        H903   1.087       .  S
C902        H904   1.087       .  S
C905        C906   1.339       .  D
C905        H907   1.086       .  S
C906        H908   1.087       .  S
C909        C910   1.340       .  D
C909        H911   1.087       .  S
C913        C914   1.341   1_554  D
C914        H916   1.087       .  S
C917        C918   1.342   1_556  D
C917        H919   1.087       .  S
C921        C922   1.343       .  D
C921        H923   1.087       .  S
N925        H957   1.040   1_554  S
N925        C929   1.354       .  A
N926        C934   1.353   1_455  A
N927        H958   1.038       .  S
N927        C931   1.355       .  A
N928        C936   1.352   1_455  A
C929        C937   1.387       .  A
C929        C945   1.417       .  A
C930        C946   1.417       .  A
C930        C938   1.387       .  A
C931        C939   1.387       .  A
C931        C948   1.418       .  A
C932        C947   1.418       .  A
C932        C940   1.387       .  A
C933        C945   1.410       .  A
C933        C941   1.386   1_554  A
C934        C948   1.412       .  A
C934        C942   1.386       .  A
C935        C943   1.387   1_554  A
C935        C946   1.410       .  A
C936        C944   1.387       .  A
C936        C947   1.412       .  A
C937        H949   1.082       .  S
C938        H950   1.082       .  S
C939        H951   1.082       .  S
C940        H952   1.082       .  S
C941        H953   1.082       .  S
C942        H954   1.082   1_554  S
C943        H955   1.082       .  S
C944        H956   1.082       .  S
C945       C1075   1.487       .  S
C946       C1063   1.486       .  S
C947       C1221   1.485       .  S
C948       C1226   1.489       .  S
N959        H991   1.041       .  S
N959        C963   1.356       .  A
N960        C968   1.352       .  A
N961        H992   1.039       .  S
N961        C965   1.350       .  A
N962        C970   1.354       .  A
C963        C971   1.387       .  A
C963        C979   1.421       .  A
C964        C980   1.420       .  A
C964        C972   1.387       .  A
C965        C973   1.387       .  A
C965        C982   1.410       .  A
C966        C981   1.409       .  A
C966        C974   1.387       .  A
C967        C979   1.416       .  A
C967        C975   1.388       .  A
C968        C982   1.411       .  A
C968        C976   1.385       .  A
C969        C977   1.388       .  A
C969        C980   1.415       .  A
C970        C978   1.385       .  A
C970        C981   1.414       .  A
C971        H983   1.082       .  S
C972        H984   1.082       .  S
C973        H985   1.082       .  S
C974        H986   1.082       .  S
C975        H987   1.082       .  S
C976        H988   1.082       .  S
C977        H989   1.082       .  S
C978        H990   1.082       .  S
C979       C1056   1.496       .  S
C980       C1051   1.496       .  S
C981       C1047   1.484       .  S
C982       C1059   1.479       .  S
O993       C1009   1.278   1_554  A
O993       Zn999   2.034       .  S
C994       C1043   1.482       .  S
C994       O1010   1.277       .  A
C994       O1007   1.273       .  A
O995       C1162   1.272       .  A
O995      Cd1002   2.060       .  S
O996       C1168   1.276   1_554  A
O996      Cd1005   2.071       .  S
O997       C1011   1.275       .  A
O997      Cd1001   2.074       .  S
O998       C1163   1.273       .  A
O998      Cd1001   2.067       .  S
Zn999      O1010   2.035       .  S
Zn999      O1012   2.038       .  S
Zn999      O1004   1.954   1_554  S
O1000      C1165   1.277   1_554  A
O1000     Cd1005   2.078       .  S
Cd1001     O1003   2.087       .  S
Cd1001     O1158   2.004       .  S
Cd1002     O1006   2.076       .  S
Cd1002     O1015   2.056       .  S
Cd1002     O1158   2.001       .  S
O1003      C1013   1.276       .  A
O1004     Cd1155   2.000       .  S
O1004     Cd1156   2.003       .  S
O1004     Cd1005   2.004   1_556  S
Cd1005     O1007   2.072       .  S
O1006      C1013   1.275       .  A
C1008      C1064   1.474       .  S
C1008      O1149   1.271       .  A
C1008      O1012   1.278   1_556  A
C1009      C1076   1.473       .  S
C1009      O1152   1.272       .  A
C1011      C1071   1.480       .  S
C1011      O1154   1.278       .  A
C1013      C1039   1.482       .  S
C1014      C1068   1.475       .  S
C1014      O1150   1.279       .  A
C1014      O1015   1.272       .  A
O1016      C1032   1.270       .  A
O1016     Zn1022   2.001       .  S
C1017      C1044   1.479       .  S
C1017      O1033   1.272       .  A
C1017      O1030   1.278       .  A
O1018      C1031   1.277       .  A
O1018     Cd1025   2.082       .  S
O1019      C1037   1.279       .  A
O1019     Cd1028   2.087       .  S
O1020      C1034   1.277       .  A
O1020     Cd1024   2.081       .  S
O1021      C1032   1.278       .  A
O1021     Cd1024   2.089       .  S
Zn1022     O1033   2.006       .  S
Zn1022     O1035   1.995       .  S
Zn1022     O1027   1.941       .  S
O1023      C1034   1.279       .  A
O1023     Cd1028   2.087       .  S
Cd1024     O1026   2.085       .  S
Cd1024     O1027   2.002       .  S
Cd1025     O1029   2.076       .  S
Cd1025     O1038   2.079       .  S
Cd1025     O1027   2.002       .  S
O1026      C1036   1.276       .  A
O1027     Cd1028   2.008       .  S
Cd1028     O1030   2.097       .  S
O1029      C1036   1.275       .  A
C1031      C1060   1.470       .  S
C1031      O1035   1.270       .  A
C1032      C1048   1.476       .  S
C1034      C1052   1.481       .  S
C1036      C1040   1.483       .  S
C1037      C1055   1.481       .  S
C1037      O1038   1.276       .  A
C1039      C1040   1.348       .  D
C1039      H1041   1.087       .  S
C1040      H1042   1.087       .  S
C1043      C1044   1.344       .  D
C1043      H1045   1.087       .  S
C1044      H1046   1.087       .  S
C1047      C1048   1.339       .  D
C1047      H1049   1.086       .  S
C1048      H1050   1.087       .  S
C1051      C1052   1.347       .  D
C1051      H1053   1.086       .  S
C1052      H1054   1.087       .  S
C1055      C1056   1.346       .  D
C1055      H1057   1.087       .  S
C1056      H1058   1.087       .  S
C1059      C1060   1.338       .  D
C1059      H1061   1.086       .  S
C1060      H1062   1.088       .  S
C1063      C1064   1.340   1_554  D
C1063      H1065   1.087       .  S
C1064      H1220   1.087       .  S
H1066      C1218   1.087       .  S
C1067      C1101   1.487       .  S
C1067      C1068   1.340       .  D
C1067      H1223   1.087       .  S
C1068      H1070   1.087       .  S
H1069      C1221   1.087       .  S
C1071      C1072   1.344       .  D
C1071      H1073   1.087       .  S
C1072      C1102   1.489       .  S
C1072      H1228   1.087       .  S
H1074      C1226   1.087       .  S
C1075      C1076   1.340   1_554  D
C1075      H1077   1.087       .  S
C1076      H1232   1.087       .  S
H1078      C1230   1.087       .  S
N1079      H1111   1.039       .  S
N1079      C1083   1.355       .  A
N1080      C1088   1.352   1_455  A
N1081      H1112   1.040       .  S
N1081      C1085   1.354       .  A
N1082      C1090   1.351   1_455  A
C1083      C1091   1.386       .  A
C1083      C1099   1.416       .  A
C1084      C1100   1.418       .  A
C1084      C1092   1.387       .  A
C1085      C1093   1.386       .  A
C1085      C1102   1.415       .  A
C1086      C1101   1.420       .  A
C1086      C1094   1.388       .  A
C1087      C1099   1.410       .  A
C1087      C1095   1.386       .  A
C1088      C1102   1.410       .  A
C1088      C1096   1.386       .  A
C1089      C1097   1.386       .  A
C1089      C1100   1.410       .  A
C1090      C1098   1.387       .  A
C1090      C1101   1.412       .  A
C1091      H1103   1.082       .  S
C1092      H1104   1.082       .  S
C1093      H1105   1.082       .  S
C1094      H1106   1.082       .  S
C1095      H1107   1.082       .  S
C1096      H1108   1.082       .  S
C1097      H1109   1.082       .  S
C1098      H1110   1.082       .  S
C1099      C1229   1.489       .  S
C1100      C1217   1.489       .  S
N1113      H1145   1.040       .  S
N1113      C1117   1.356       .  A
N1114      C1122   1.354       .  A
N1115      H1146   1.037       .  S
N1115      C1119   1.351       .  A
N1116      C1124   1.353       .  A
C1117      C1125   1.387       .  A
C1117      C1133   1.420       .  A
C1118      C1134   1.419       .  A
C1118      C1126   1.387       .  A
C1119      C1127   1.388       .  A
C1119      C1136   1.409       .  A
C1120      C1135   1.409       .  A
C1120      C1128   1.387       .  A
C1121      C1133   1.416       .  A
C1121      C1129   1.388       .  A
C1122      C1136   1.413       .  A
C1122      C1130   1.384       .  A
C1123      C1131   1.388       .  A
C1123      C1134   1.414       .  A
C1124      C1132   1.384       .  A
C1124      C1135   1.411       .  A
C1125      H1137   1.082       .  S
C1126      H1138   1.082       .  S
C1127      H1139   1.082       .  S
C1128      H1140   1.082       .  S
C1129      H1141   1.082       .  S
C1130      H1142   1.082       .  S
C1131      H1143   1.082       .  S
C1132      H1144   1.082       .  S
C1133      C1210   1.495       .  S
C1134      C1205   1.492       .  S
C1135      C1201   1.480       .  S
C1136      C1213   1.480       .  S
O1147      C1163   1.277       .  A
O1147     Zn1153   2.031       .  S
C1148      C1197   1.481       .  S
C1148      O1164   1.275       .  A
C1148      O1161   1.275       .  A
O1149     Cd1156   2.055       .  S
O1150     Cd1159   2.088       .  S
O1151      C1165   1.274       .  A
O1151     Cd1155   2.070       .  S
O1152     Cd1155   2.054       .  S
Zn1153     O1164   2.020       .  S
Zn1153     O1166   2.039       .  S
Zn1153     O1158   1.954       .  S
O1154     Cd1159   2.086       .  S
Cd1155     O1157   2.078       .  S
Cd1156     O1160   2.082       .  S
Cd1156     O1169   2.067       .  S
O1157      C1167   1.274       .  A
O1158     Cd1159   2.012       .  S
Cd1159     O1161   2.081       .  S
O1160      C1167   1.276       .  A
C1162      C1218   1.477       .  S
C1162      O1166   1.277       .  A
C1163      C1230   1.477       .  S
C1165      C1225   1.478       .  S
C1167      C1193   1.482       .  S
C1168      C1222   1.474       .  S
C1168      O1169   1.274       .  A
O1170      C1186   1.271       .  A
O1170     Zn1176   2.008       .  S
C1171      C1198   1.478       .  S
C1171      O1187   1.274       .  A
C1171      O1184   1.275       .  A
O1172      C1185   1.277       .  A
O1172     Cd1179   2.078       .  S
O1173      C1191   1.277       .  A
O1173     Cd1182   2.077       .  S
O1174      C1188   1.276       .  A
O1174     Cd1178   2.081       .  S
O1175      C1186   1.276       .  A
O1175     Cd1178   2.077       .  S
Zn1176     O1187   2.020       .  S
Zn1176     O1189   2.008       .  S
Zn1176     O1181   1.946       .  S
O1177      C1188   1.277       .  A
O1177     Cd1182   2.077       .  S
Cd1178     O1180   2.076       .  S
Cd1178     O1181   1.998       .  S
Cd1179     O1183   2.083       .  S
Cd1179     O1192   2.087       .  S
Cd1179     O1181   2.001       .  S
O1180      C1190   1.274       .  A
O1181     Cd1182   1.999       .  S
Cd1182     O1184   2.079       .  S
O1183      C1190   1.276       .  A
C1185      C1214   1.473       .  S
C1185      O1189   1.272       .  A
C1186      C1202   1.472       .  S
C1188      C1206   1.479       .  S
C1190      C1194   1.481       .  S
C1191      C1209   1.482       .  S
C1191      O1192   1.277       .  A
C1193      C1194   1.346       .  D
C1193      H1195   1.087       .  S
C1194      H1196   1.087       .  S
C1197      C1198   1.347       .  D
C1197      H1199   1.087       .  S
C1198      H1200   1.087       .  S
C1201      C1202   1.340       .  D
C1201      H1203   1.086       .  S
C1202      H1204   1.087       .  S
C1205      C1206   1.346       .  D
C1205      H1207   1.087       .  S
C1206      H1208   1.087       .  S
C1209      C1210   1.347       .  D
C1209      H1211   1.087       .  S
C1210      H1212   1.086       .  S
C1213      C1214   1.340       .  D
C1213      H1215   1.086       .  S
C1214      H1216   1.087       .  S
C1217      C1218   1.341       .  D
C1217      H1219   1.087       .  S
C1221      C1222   1.342   1_554  D
C1222      H1224   1.087       .  S
C1225      C1226   1.343   1_556  D
C1225      H1227   1.087       .  S
C1229      C1230   1.343       .  D
C1229      H1231   1.087       .  S
