geometry optimzed in LAMMPS
_audit_creation_date              2020-11-30 
_audit_creation_method            'lammps2cif' 
_symmetry_space_group_name_H-M    'P1' 
_symmetry_Int_Tables_number       1 
_symmetry_cell_setting            triclinic 
loop_ 
_symmetry_equiv_pos_as_xyz 
  x,y,z 
_cell_length_a                    45.62179192 
_cell_length_b                    45.60043820470089 
_cell_length_c                    32.85632311750161 
_cell_angle_alpha                 90.21453070983479 
_cell_angle_beta                  89.9604969368544 
_cell_angle_gamma                 89.32443400630167 
loop_ 
_atom_site_label 
_atom_site_type_symbol 
_atom_site_fract_x 
_atom_site_fract_y 
_atom_site_fract_z 
_atom_site_charge 
N1          N  0.47486631  0.20815474  0.32132932    -0.25400
N2          N  0.46730633  0.23259266  0.34064259    -0.33200
C3          C  0.45029229  0.22583275  0.37264803     0.03000
C4          C  0.44713778  0.19578087  0.37325085     0.09000
C5          C  0.46292753  0.18517262  0.34047244    -0.04100
H6          H  0.44095091  0.24161116  0.39377690     0.09700
H7          H  0.46554135  0.16251294  0.33113761     0.10900
Cu8        Cu  0.48020447  0.27393381  0.32214519     0.44200
Cu9        Cu  0.50058746  0.20725638  0.26954984     0.42000
Cu10       Cu  0.52039508  0.27783097  0.22715149     0.43900
N11         N  0.49384885  0.31286977  0.29618358    -0.32800
N12         N  0.50779666  0.31441556  0.26097562    -0.27000
C13         C  0.51245183  0.34277308  0.25209386    -0.03100
C14         C  0.50094759  0.35984320  0.28336594     0.09100
C15         C  0.48951879  0.34015330  0.31082625     0.02900
H16         H  0.52364853  0.35026364  0.22509812     0.10600
H17         H  0.47847618  0.34530138  0.33916250     0.09600
N18         N  0.53206070  0.23775102  0.20126536    -0.34200
N19         N  0.52498219  0.21213331  0.21705356    -0.26400
C20         C  0.53614917  0.19050245  0.19364942    -0.01600
C21         C  0.55089411  0.20316054  0.16175729     0.07000
C22         C  0.54797219  0.23306611  0.16729537     0.05100
H23         H  0.53377322  0.16732717  0.19957069     0.10200
H24         H  0.55686478  0.25014387  0.14830833     0.09000
O25         O  0.46095723  0.50198794  0.23590511    -0.71000
O26         O  0.54909779  0.50260221  0.23544561    -0.72000
O27         O  0.50591672  0.45848509  0.22958113    -0.60600
O28         O  0.50431852  0.54630921  0.24194288    -0.69000
O29         O  0.50632957  0.54161420  0.30909425    -0.68600
O30         O  0.50439398  0.45396579  0.29678506    -0.59800
O31         O  0.54928381  0.49625959  0.30239781    -0.72300
O32         O  0.46122948  0.49925955  0.30333948    -0.71100
Cu33       Cu  0.50504584  0.50253878  0.23335504     1.04600
Cu34       Cu  0.50529978  0.49762277  0.30523617     1.04300
C35         C  0.44720170  0.50066137  0.26975618     0.95200
C36         C  0.56306648  0.49914607  0.26883721     0.94300
C37         C  0.50524772  0.44239129  0.26129733     0.86500
C38         C  0.50540294  0.55779977  0.27748286     0.92700
N39         N  0.69027021  0.49563046  0.25314304    -0.25400
N40         N  0.69002498  0.51026913  0.21848523    -0.33200
C41         C  0.66208527  0.51563188  0.20751786     0.03000
C42         C  0.64386439  0.50405409  0.23680444     0.09000
C43         C  0.66247786  0.49146977  0.26530806    -0.04100
H44         H  0.65552394  0.52729201  0.18032361     0.09700
H45         H  0.65641935  0.47979254  0.29258168     0.10900
Cu46       Cu  0.72759945  0.52279763  0.18804465     0.44200
Cu47       Cu  0.72831448  0.48112612  0.28166785     0.42000
Cu48       Cu  0.79652663  0.49790065  0.23081418     0.43900
N49         N  0.76815476  0.53386232  0.16470010    -0.32800
N50         N  0.79333241  0.52468808  0.18033795    -0.27000
C51         C  0.81551734  0.53600469  0.15876325    -0.03100
C52         C  0.80360834  0.55305107  0.12828433     0.09100
C53         C  0.77362456  0.55129786  0.13271195     0.02900
H54         H  0.83853015  0.53219107  0.16497740     0.10600
H55         H  0.75702307  0.56193526  0.11427556     0.09600
N56         N  0.79401725  0.47305402  0.28318549    -0.34200
N57         N  0.76917240  0.46710217  0.30205414    -0.26400
C58         C  0.77513528  0.45063939  0.33499651    -0.01600
C59         C  0.80507332  0.44614292  0.33666551     0.07000
C60         C  0.81644414  0.46058684  0.30355875     0.05100
H61         H  0.75888134  0.44250906  0.35599055     0.10200
H62         H  0.83925573  0.46195795  0.29484895     0.09000
N63         N  0.47260025  0.79224174  0.21382672    -0.25400
N64         N  0.46635171  0.76752566  0.19470151    -0.33200
C65         C  0.45038058  0.77374128  0.16135816     0.03000
C66         C  0.44649186  0.80375744  0.15951859     0.09000
C67         C  0.46078072  0.81490115  0.19312929    -0.04100
H68         H  0.44195822  0.75757209  0.14035578     0.09700
H69         H  0.46222147  0.83768181  0.20215458     0.10900
Cu70       Cu  0.47905880  0.72647974  0.21565925     0.44200
Cu71       Cu  0.49632475  0.79349081  0.26767595     0.42000
Cu72       Cu  0.51673382  0.72282391  0.31249030     0.43900
N73         N  0.49212079  0.68758341  0.24304348    -0.32800
N74         N  0.50522746  0.68602507  0.27886425    -0.27000
C75         C  0.51009384  0.65762146  0.28806876    -0.03100
C76         C  0.49960937  0.64057432  0.25632210     0.09100
C77         C  0.48851299  0.66031766  0.22836555     0.02900
H78         H  0.52083390  0.65009131  0.31550797     0.10600
H79         H  0.47834794  0.65522510  0.19948643     0.09600
N80         N  0.52779131  0.76323033  0.33719502    -0.34200
N81         N  0.52045395  0.78877536  0.32084632    -0.26400
C82         C  0.53174234  0.81048273  0.34358236    -0.01600
C83         C  0.54682930  0.79794917  0.37557216     0.07000
C84         C  0.54397284  0.76804896  0.37075741     0.05100
H85         H  0.52943716  0.83361707  0.33695169     0.10200
H86         H  0.55327328  0.75103644  0.38982178     0.09000
N87         N  0.21670154  0.47388898  0.18012863    -0.25400
N88         N  0.24200738  0.46576871  0.16363967    -0.33200
C89         C  0.23674031  0.44986553  0.12984302     0.03000
C90         C  0.20674916  0.44798699  0.12496686     0.09000
C91         C  0.19466903  0.46339352  0.15725206    -0.04100
H92         H  0.25349684  0.44020613  0.11053590     0.09700
H93         H  0.17161601  0.46654367  0.16387088     0.10900
Cu94       Cu  0.28254625  0.47622389  0.18841420     0.44200
Cu95       Cu  0.21327484  0.49845982  0.23343695     0.42000
Cu96       Cu  0.28155331  0.51729634  0.28328894     0.43900
N97         N  0.32012939  0.48854534  0.21964662    -0.32800
N98         N  0.31974051  0.50294708  0.25466424    -0.27000
C99         C  0.34749548  0.50723732  0.26698812    -0.03100
C100        C  0.36627389  0.49508266  0.23818783     0.09100
C101        C  0.34816252  0.48354727  0.20859382     0.02900
H102        H  0.35344574  0.51891912  0.29442017     0.10600
H103        H  0.35487807  0.47232279  0.18099469     0.09600
N104        N  0.24049453  0.53005286  0.30479283    -0.34200
N105        N  0.21559017  0.52316755  0.28667604    -0.26400
C106        C  0.19309025  0.53478236  0.30811626    -0.01600
C107        C  0.20446915  0.54959874  0.34113830     0.07000
C108        C  0.23450325  0.54624652  0.33818673     0.05100
H109        H  0.17020759  0.53262652  0.30017041     0.10200
H110        H  0.25081763  0.55493533  0.35869784     0.09000
N111        N  0.46758197  0.79112601  0.81846512    -0.25400
N112        N  0.45909659  0.76604950  0.83454987    -0.33200
C113        C  0.44162039  0.77179867  0.86670091     0.03000
C114        C  0.43908457  0.80184690  0.87091356     0.09000
C115        C  0.45574376  0.81349618  0.83997807    -0.04100
H116        H  0.43177111  0.75531760  0.88578024     0.09700
H117        H  0.45925384  0.83647606  0.83375526     0.10900
Cu118      Cu  0.47207575  0.72512314  0.81251596     0.44200
Cu119      Cu  0.49521076  0.79370764  0.76834385     0.42000
Cu120      Cu  0.51797191  0.72421224  0.72279657     0.43900
N121        N  0.48714848  0.68686663  0.78448804    -0.32800
N122        N  0.50332777  0.68647857  0.75107817    -0.27000
C123        C  0.50905157  0.65843599  0.74046000    -0.03100
C124        C  0.49598529  0.64032924  0.76877874     0.09100
C125        C  0.48244137  0.65910113  0.79628008     0.02900
H126        H  0.52236185  0.65183114  0.71467706     0.10600
H127        H  0.47007184  0.65301056  0.82299413     0.09600
N128        N  0.53044470  0.76488566  0.70102567    -0.34200
N129        N  0.52226883  0.79018544  0.71760770    -0.26400
C130        C  0.53397238  0.81222744  0.69607683    -0.01600
C131        C  0.55020615  0.80010907  0.66463838     0.07000
C132        C  0.54755317  0.77015121  0.66854562     0.05100
H133        H  0.53073896  0.83529293  0.70271519     0.10200
H134        H  0.55719007  0.75339878  0.64916636     0.09000
O135        O  0.50297407  0.54231795  0.71143823    -0.71000
O136        O  0.50181373  0.45408863  0.72304077    -0.72000
O137        O  0.45882872  0.50001808  0.72455976    -0.60600
O138        O  0.54575112  0.49636000  0.70895371    -0.69000
O139        O  0.55224563  0.50239862  0.77539205    -0.68600
O140        O  0.46453222  0.50270933  0.79154773    -0.59800
O141        O  0.50947713  0.45901036  0.78940407    -0.72300
O142        O  0.50723239  0.54650928  0.77848244    -0.71100
Cu143      Cu  0.50211231  0.49805443  0.71467163     1.04600
Cu144      Cu  0.50860400  0.50285460  0.78603209     1.04300
C145        C  0.50477532  0.55827935  0.74340250     0.95200
C146        C  0.50591771  0.44271880  0.75818591     0.94300
C147        C  0.44789273  0.50175454  0.76030268     0.86500
C148        C  0.56274569  0.49872326  0.73955853     0.92700
N149        N  0.31888720  0.51665891  0.72280560    -0.25400
N150        N  0.31992340  0.50001197  0.75565665    -0.33200
C151        C  0.34815458  0.49552954  0.76611174     0.03000
C152        C  0.36562326  0.50991498  0.73824390     0.09000
C153        C  0.34635250  0.52293771  0.71123294    -0.04100
H154        H  0.35535390  0.48188781  0.79113291     0.09700
H155        H  0.35189820  0.53567723  0.68465960     0.10900
Cu156      Cu  0.28297278  0.48223306  0.78256235     0.44200
Cu157      Cu  0.28048439  0.52934275  0.69387849     0.42000
Cu158      Cu  0.21397909  0.49698543  0.73102325     0.43900
N159        N  0.24298357  0.46567136  0.80141952    -0.32800
N160        N  0.21789933  0.47087394  0.78241916    -0.27000
C161        C  0.19616761  0.45739114  0.80247497    -0.03100
C162        C  0.20823977  0.44304552  0.83547078     0.09100
C163        C  0.23787493  0.44870376  0.83405441     0.02900
H164        H  0.17327897  0.45834024  0.79395867     0.10600
H165        H  0.25445237  0.44136241  0.85535425     0.09600
N166        N  0.21516380  0.52597931  0.68250309    -0.34200
N167        N  0.23956146  0.53806983  0.66920240    -0.26400
C168        C  0.23310463  0.55595951  0.63792025    -0.01600
C169        C  0.20327408  0.55498720  0.63136975     0.07000
C170        C  0.19248487  0.53584281  0.66000199     0.05100
H171        H  0.24897437  0.56857030  0.62113579     0.10200
H172        H  0.16990818  0.52950008  0.66418201     0.09000
N173        N  0.49554021  0.31185111  0.72955760    -0.25400
N174        N  0.51004513  0.31474355  0.76417573    -0.33200
C175        C  0.51418882  0.34349200  0.77140953     0.03000
C176        C  0.50173807  0.35939208  0.73974543     0.09000
C177        C  0.49028075  0.33858057  0.71378616    -0.04100
H178        H  0.52556250  0.35204495  0.79768557     0.09700
H179        H  0.47862854  0.34258703  0.68564021     0.10900
Cu180      Cu  0.52349686  0.27946793  0.80025923     0.44200
Cu181      Cu  0.48258213  0.27198312  0.70531534     0.42000
Cu182      Cu  0.49872284  0.20821430  0.76565463     0.43900
N183        N  0.53324230  0.24023138  0.83018772    -0.32800
N184        N  0.52371058  0.21443884  0.81759722    -0.27000
C185        C  0.53405032  0.19338873  0.84248637    -0.03100
C186        C  0.55089806  0.20649702  0.87205959     0.09100
C187        C  0.55000984  0.23617750  0.86353907     0.02900
H188        H  0.53005783  0.17019096  0.83877060     0.05800
H189        H  0.56104320  0.25346415  0.87991255     0.09600
N190        N  0.47712090  0.20635389  0.71021190    -0.34200
N191        N  0.47138156  0.22980405  0.68790377    -0.26400
C192        C  0.45738852  0.22149156  0.65380125    -0.01600
C193        C  0.45431487  0.19143158  0.65481269     0.07000
C194        C  0.46695982  0.18244885  0.69089863     0.05100
H195        H  0.44978793  0.23627260  0.63028525     0.10200
H196        H  0.46848899  0.16029483  0.70244553     0.09000
N197        N  0.79896842  0.51851198  0.78908056    -0.25400
N198        N  0.77501383  0.52415277  0.81047148    -0.33200
C199        C  0.78218773  0.53904534  0.84433195     0.03000
C200        C  0.81210463  0.54288539  0.84419295     0.09000
C201        C  0.82219526  0.52968973  0.80883719    -0.04100
H202        H  0.76669606  0.54691542  0.86691153     0.09700
H203        H  0.84457252  0.52866707  0.79796908     0.10900
Cu204      Cu  0.73368123  0.51253882  0.79141782     0.44200
Cu205      Cu  0.79779879  0.49651459  0.73362708     0.42000
Cu206      Cu  0.72560981  0.47633179  0.69337313     0.43900
N207        N  0.69380253  0.50199540  0.76613742    -0.32800
N208        N  0.69041004  0.48940372  0.73014761    -0.27000
C209        C  0.66149770  0.48686848  0.72272025    -0.03100
C210        C  0.64617646  0.49839041  0.75578085     0.09100
C211        C  0.66738509  0.50759535  0.78262987     0.02900
H212        H  0.65243663  0.47720999  0.69544567     0.10600
H213        H  0.66389138  0.51801537  0.81191019     0.09600
N214        N  0.76543801  0.46586148  0.66513516    -0.34200
N215        N  0.79133110  0.47336180  0.67984905    -0.26400
C216        C  0.81252098  0.46277157  0.65519495    -0.01600
C217        C  0.79941518  0.44795278  0.62356757     0.07000
C218        C  0.76960044  0.45022830  0.63064475     0.05100
H219        H  0.83577637  0.46525789  0.66038400     0.10200
H220        H  0.75225363  0.44084980  0.61251789     0.09000
N221        N  0.99825684  0.80993676  0.76596610    -0.25400
N222        N  0.01049460  0.81338039  0.72983095    -0.33200
C223        C  0.01191528  0.84235571  0.72197484     0.03000
C224        C  0.00004356  0.85761744  0.75493852     0.09000
C225        C  0.99179721  0.83630811  0.78212780    -0.04100
H226        H  0.02109984  0.85152518  0.69453488     0.09700
H227        H  0.98145842  0.83969514  0.81146059     0.10900
Cu228      Cu  0.02461194  0.77784306  0.69387848     0.44200
Cu229      Cu  0.98904735  0.76993898  0.79152775     0.42000
Cu230      Cu  0.00445693  0.70544583  0.73273491     0.43900
N231        N  0.03659198  0.73791666  0.66631911    -0.32800
N232        N  0.02897979  0.71194776  0.68055151    -0.27000
C233        C  0.04053972  0.69076943  0.65666886    -0.03100
C234        C  0.05615638  0.70392831  0.62598814     0.09100
C235        C  0.05329793  0.73378256  0.63284101     0.02900
H236        H  0.03804698  0.66748612  0.66166969     0.10600
H237        H  0.06288080  0.75118400  0.61513614     0.09600
N238        N  0.98252541  0.70463974  0.78787267    -0.34200
N239        N  0.97730109  0.72855190  0.80966421    -0.26400
C240        C  0.96261666  0.72134560  0.84353933    -0.01600
C241        C  0.95853321  0.69149029  0.84291695     0.07000
C242        C  0.97130635  0.68141785  0.80736203     0.05100
H243        H  0.95514159  0.73676701  0.86650500     0.10200
H244        H  0.97215415  0.65905505  0.79627055     0.09000
O245        O  0.99768144  0.04567600  0.72695690    -0.71000
O246        O  0.00085680  0.95862188  0.70938821    -0.72000
O247        O  0.95527035  0.00177452  0.71096638    -0.60600
O248        O  0.04296344  0.00213939  0.72623093    -0.69000
O249        O  0.03693187  0.99406245  0.79227832    -0.68600
O250        O  0.94986942  0.99668651  0.77768662    -0.59800
O251        O  0.99381456  0.95154361  0.77544448    -0.72300
O252        O  0.99358630  0.03938083  0.79362875    -0.71100
Cu253      Cu  0.99935578  0.00232666  0.71608644     1.04600
Cu254      Cu  0.99327612  0.99519091  0.78707603     1.04300
C255        C  0.99551981  0.05636004  0.76287178     0.95200
C256        C  0.99806228  0.94132105  0.73952908     0.94300
C257        C  0.93875716  0.99941504  0.74219361     0.86500
C258        C  0.05369960  0.99766130  0.76167950     0.92700
N259        N  0.28967180  0.02168144  0.71434165    -0.25400
N260        N  0.26597592  0.02751412  0.69255000    -0.33200
C261        C  0.27358126  0.04276690  0.65935412     0.03000
C262        C  0.30345963  0.04664277  0.66039162     0.09000
C263        C  0.31312486  0.03309621  0.69550798    -0.04100
H264        H  0.25844752  0.05049176  0.63632740     0.09700
H265        H  0.33542468  0.03160247  0.70654535     0.10900
Cu266      Cu  0.22434364  0.01515628  0.70920777     0.44200
Cu267      Cu  0.28847565  0.99822737  0.76833523     0.42000
Cu268      Cu  0.21644842  0.97613424  0.80449528     0.43900
N269        N  0.18443822  0.00393949  0.73378248    -0.32800
N270        N  0.18126378  0.99032606  0.76894190    -0.27000
C271        C  0.15244450  0.98743368  0.77655529    -0.03100
C272        C  0.13689276  0.99977707  0.74448049     0.09100
C273        C  0.15789338  0.00987878  0.71796848     0.02900
H274        H  0.14362178  0.97688587  0.80324447     0.10600
H275        H  0.15417198  0.02103163  0.68939143     0.09600
N276        N  0.25571247  0.96463587  0.83300837    -0.34200
N277        N  0.28175749  0.97293286  0.81984835    -0.26400
C278        C  0.30259581  0.96176362  0.84444851    -0.01600
C279        C  0.28904598  0.94570322  0.87437999     0.07000
C280        C  0.25936831  0.94789038  0.86638905     0.05100
H281        H  0.32589654  0.96490296  0.84054473     0.10200
H282        H  0.24176546  0.93793592  0.88332666     0.09000
N283        N  0.97433939  0.29012110  0.68631413    -0.25400
N284        N  0.96557370  0.26509709  0.67021255    -0.33200
C285        C  0.94886409  0.27081813  0.63739926     0.03000
C286        C  0.94710461  0.30084216  0.63279548     0.09000
C287        C  0.96345057  0.31250020  0.66414972    -0.04100
H288        H  0.93870762  0.25434454  0.61847273     0.09700
H289        H  0.96712567  0.33546858  0.67047122     0.10900
Cu290      Cu  0.97626010  0.22448261  0.69442866     0.44200
Cu291      Cu  0.00045203  0.29215644  0.73794806     0.42000
Cu292      Cu  0.01713266  0.22256756  0.78907701     0.43900
N293        N  0.98695437  0.18619082  0.72507664    -0.32800
N294        N  0.00106640  0.18512619  0.76020872    -0.27000
C295        C  0.00416842  0.15679321  0.77136401    -0.03100
C296        C  0.99155053  0.13936694  0.74154820     0.09100
C297        C  0.98101201  0.15877717  0.71278012     0.02900
H298        H  0.01564482  0.14945371  0.79833420     0.10600
H299        H  0.97005670  0.15333938  0.68459114     0.09600
N300        N  0.03240518  0.26337281  0.80837526    -0.34200
N301        N  0.02637750  0.28840437  0.78966020    -0.26400
C302        C  0.03973207  0.31043971  0.80941235    -0.01600
C303        C  0.05485107  0.29874813  0.84199059     0.07000
C304        C  0.04981086  0.26892917  0.84056891     0.05100
H305        H  0.03848862  0.33326662  0.80064502     0.10200
H306        H  0.05817100  0.25247746  0.86131606     0.09000
N307        N  0.80942679  0.00978833  0.78113993    -0.25400
N308        N  0.81057921  0.99648616  0.74530988    -0.33200
C309        C  0.83888374  0.99276182  0.73452207     0.03000
C310        C  0.85624981  0.00412731  0.76524073     0.09000
C311        C  0.83684675  0.01458640  0.79424793    -0.04100
H312        H  0.84618322  0.98189703  0.70693775     0.09700
H313        H  0.84226503  0.02493495  0.82291778     0.10900
Cu314      Cu  0.77358428  0.98261241  0.71395104     0.44200
Cu315      Cu  0.77102426  0.02159700  0.81102184     0.42000
Cu316      Cu  0.70398623  0.00270466  0.76123003     0.43900
N317        N  0.73297608  0.96974587  0.69173493    -0.32800
N318        N  0.70774533  0.97709157  0.70911885    -0.27000
C319        C  0.68569436  0.96483379  0.68815998    -0.03100
C320        C  0.69764580  0.94907724  0.65619365     0.09100
C321        C  0.72759979  0.95257144  0.65919457     0.02900
H322        H  0.66272515  0.96702946  0.69591010     0.10600
H323        H  0.74426066  0.94313267  0.63952207     0.09600
N324        N  0.70539130  0.02737808  0.81434780    -0.34200
N325        N  0.73013577  0.03410193  0.83291280    -0.26400
C326        C  0.72393755  0.05008216  0.86640476    -0.01600
C327        C  0.69389141  0.05345942  0.86887176     0.07000
C328        C  0.68272772  0.03888429  0.83552127     0.05100
H329        H  0.74010092  0.05861602  0.88726937     0.10200
H330        H  0.65990077  0.03674878  0.82724030     0.09000
N331        N  0.99253541  0.18786125  0.23833721    -0.25400
N332        N  0.00488901  0.18931587  0.20199551    -0.33200
C333        C  0.00817821  0.16200309  0.18694373     0.03000
C334        C  0.99766221  0.14239919  0.21526313     0.09000
C335        C  0.98783913  0.15956519  0.24750439    -0.04100
H336        H  0.01790697  0.15676669  0.15772297     0.09700
H337        H  0.97782743  0.15219466  0.27544536     0.10900
Cu338      Cu  0.01799144  0.22822122  0.17529091     0.44200
Cu339      Cu  0.98238894  0.22445895  0.27359079     0.42000
Cu340      Cu  0.00563811  0.29464536  0.23355715     0.43900
N341        N  0.03214479  0.26921155  0.15695554    -0.32800
N342        N  0.02788155  0.29350313  0.17840480    -0.27000
C343        C  0.04057988  0.31600908  0.15900991    -0.03100
C344        C  0.05336862  0.30523511  0.12383575     0.09100
C345        C  0.04767278  0.27558680  0.12336182     0.02900
H346        H  0.04078733  0.33840170  0.16999727     0.10600
H347        H  0.05466596  0.25972580  0.10068846     0.09600
N348        N  0.98197390  0.28998076  0.28711649    -0.34200
N349        N  0.97350848  0.26442725  0.30172229    -0.26400
C350        C  0.95766873  0.26909955  0.33576485    -0.01600
C351        C  0.95620653  0.29894087  0.34276157     0.07000
C352        C  0.97174846  0.31157476  0.31148211     0.05100
H353        H  0.94743691  0.25207851  0.35348373     0.10200
H354        H  0.97483947  0.33474598  0.30623496     0.09000
O355        O  0.99142032  0.04380448  0.26916347    -0.71000
O356        O  0.99325142  0.95596348  0.25676179    -0.72000
O357        O  0.03630102  0.00040841  0.26297091    -0.60600
O358        O  0.94828590  0.99944789  0.26356754    -0.69000
O359        O  0.94790405  0.00580132  0.19663224    -0.68600
O360        O  0.03619479  0.00320487  0.19554311    -0.59800
O361        O  0.99117054  0.96068887  0.18961321    -0.72300
O362        O  0.99286329  0.04829706  0.20195535    -0.71100
Cu363      Cu  0.99232288  0.99971692  0.26545557     1.04600
Cu364      Cu  0.99202242  0.00465264  0.19358184     1.04300
C365        C  0.99219275  0.05988766  0.23742797     0.95200
C366        C  0.99224881  0.94449741  0.22119632     0.94300
C367        C  0.05013905  0.00185425  0.22922406     0.86500
C368        C  0.93419440  0.00278800  0.23026501     0.92700
N369        N  0.70386450  0.97347187  0.31894846    -0.25400
N370        N  0.72914517  0.96640626  0.33627731    -0.33200
C371        C  0.72390284  0.94993504  0.36937825     0.03000
C372        C  0.69397175  0.94654438  0.37287112     0.09000
C373        C  0.68187975  0.96169505  0.34056673    -0.04100
H374        H  0.74065693  0.94082414  0.38905813     0.09700
H375        H  0.65887170  0.96374587  0.33301364     0.10900
Cu376      Cu  0.76972602  0.97847114  0.31321139     0.44200
Cu377      Cu  0.70037152  0.99809843  0.26599021     0.42000
Cu378      Cu  0.76871386  0.01997377  0.21933899     0.43900
N379        N  0.80735501  0.99121670  0.28247268    -0.32800
N380        N  0.80691231  0.00599459  0.24792210    -0.27000
C381        C  0.83461970  0.01007018  0.23528123    -0.03100
C382        C  0.85346080  0.99727930  0.26330703     0.09100
C383        C  0.83540812  0.98566713  0.29285397     0.02900
H384        H  0.84046832  0.02170378  0.20788483     0.10600
H385        H  0.84217294  0.97380591  0.31978304     0.09600
N386        N  0.72771763  0.03076506  0.19607712    -0.34200
N387        N  0.70273716  0.02275950  0.21298701    -0.26400
C388        C  0.68028603  0.03346509  0.19072895    -0.01600
C389        C  0.69180124  0.04884451  0.15843286     0.07000
C390        C  0.72184265  0.04676056  0.16265855     0.05100
H391        H  0.65734825  0.03050301  0.19780350     0.10200
H392        H  0.73823785  0.05636190  0.14316707     0.09000
N393        N  0.97732102  0.71287131  0.18251179    -0.25400
N394        N  0.96843247  0.73807800  0.16660407    -0.33200
C395        C  0.95159338  0.73249895  0.13385545     0.03000
C396        C  0.94992542  0.70244211  0.12913583     0.09000
C397        C  0.96642702  0.69065000  0.16034384    -0.04100
H398        H  0.94138327  0.74908428  0.11494908     0.09700
H399        H  0.97027086  0.66763985  0.16653668     0.10900
Cu400      Cu  0.97963347  0.77892339  0.19023735     0.44200
Cu401      Cu  0.00383098  0.70938463  0.23366294     0.42000
Cu402      Cu  0.02548791  0.77695018  0.28075117     0.43900
N403        N  0.99365323  0.81622646  0.22110583    -0.32800
N404        N  0.00985117  0.81519491  0.25445624    -0.27000
C405        C  0.01428725  0.84261325  0.26800614    -0.03100
C406        C  0.00053809  0.86194525  0.24184615     0.09100
C407        C  0.98762457  0.84450699  0.21234499     0.02900
H408        H  0.02669488  0.84807604  0.29499055     0.10600
H409        H  0.97435646  0.85170202  0.18692125     0.09600
N410        N  0.03835135  0.73617859  0.30211794    -0.34200
N411        N  0.03031912  0.71126940  0.28493047    -0.26400
C412        C  0.04204061  0.68873828  0.30594736    -0.01600
C413        C  0.05816418  0.70017397  0.33766166     0.07000
C414        C  0.05541445  0.73022869  0.33449442     0.05100
H415        H  0.03900145  0.66581524  0.29867550     0.10200
H416        H  0.06499253  0.74656750  0.35422836     0.09000
N417        N  0.28039246  0.97363635  0.21852723    -0.25400
N418        N  0.25575040  0.96913350  0.19841555    -0.33200
C419        C  0.26174445  0.95332831  0.16469067     0.03000
C420        C  0.29153625  0.94773767  0.16379775     0.09000
C421        C  0.30275823  0.96084968  0.19821290    -0.04100
H422        H  0.24563096  0.94648227  0.14256691     0.09700
H423        H  0.32544796  0.96123611  0.20772152     0.10900
Cu424      Cu  0.21529530  0.98451806  0.21841421     0.44200
Cu425      Cu  0.28244773  0.99756773  0.27204293     0.42000
Cu426      Cu  0.21421342  0.02613168  0.31352040     0.43900
N427        N  0.17732071  0.99955973  0.24660168    -0.32800
N428        N  0.17673436  0.01398965  0.28160920    -0.27000
C429        C  0.14860156  0.01903126  0.29220283    -0.03100
C430        C  0.13071533  0.00751645  0.26228658     0.09100
C431        C  0.14968388  0.99530786  0.23384890     0.02900
H432        H  0.14166180  0.03023900  0.31970875     0.10600
H433        H  0.14394461  0.98353353  0.20640485     0.09600
N434        N  0.25527376  0.03513822  0.33814902    -0.34200
N435        N  0.28002380  0.02438456  0.32290097    -0.26400
C436        C  0.30270153  0.03423869  0.34497036    -0.01600
C437        C  0.29172118  0.05202103  0.37550066     0.07000
C438        C  0.26162609  0.05221589  0.37047369     0.05100
H439        H  0.32548301  0.02897362  0.33899404     0.10200
H440        H  0.24557401  0.06393730  0.38874725     0.09000
O441        O  0.09324983  0.36960595  0.93751260    -0.71000
O442        O  0.13835386  0.41438409  0.02242830    -0.72000
O443        O  0.13905568  0.41152503  0.93592361    -0.60600
O444        O  0.09245711  0.37257122  0.02388886    -0.69000
O445        O  0.12554880  0.33646738  0.02643772    -0.68600
O446        O  0.17224148  0.37550594  0.93833006    -0.59800
O447        O  0.17145174  0.37830388  0.02495247    -0.72300
O448        O  0.12637240  0.33354807  0.94004622    -0.71100
Cu449      Cu  0.11464130  0.39330178  0.97983632     1.04600
Cu450      Cu  0.15008592  0.35469647  0.98253175     1.04300
C451        C  0.10266694  0.34449197  0.92568719     0.95200
C452        C  0.16194488  0.40332427  0.03699832     0.94300
C453        C  0.16290759  0.39968281  0.92339044     0.86500
C454        C  0.10162902  0.34832693  0.03874761     0.92700
O455        O  0.58275059  0.13499736  0.05820946    -0.71000
O456        O  0.62460329  0.08941398  0.97037682    -0.72000
O457        O  0.62399743  0.08772596  0.05698777    -0.60600
O458        O  0.58325154  0.13668991  0.97189471    -0.69000
O459        O  0.61966101  0.16861364  0.97357332    -0.68600
O460        O  0.66039497  0.11966306  0.05874939    -0.59800
O461        O  0.66100708  0.12135627  0.97223773    -0.72300
O462        O  0.61919570  0.16691442  0.05989245    -0.71100
Cu463      Cu  0.60237016  0.11106889  0.01430007     1.04600
Cu464      Cu  0.64136051  0.14523337  0.01617490     1.04300
C465        C  0.59438542  0.15813719  0.07262584     0.95200
C466        C  0.64937507  0.09830296  0.95756245     0.94300
C467        C  0.64856783  0.09609427  0.07123033     0.86500
C468        C  0.59497770  0.16035364  0.95957339     0.92700
O469        O  0.84440261  0.61519197  0.94002585    -0.71000
O470        O  0.88379779  0.66426202  0.02564302    -0.72000
O471        O  0.88776224  0.65921408  0.93961227    -0.60600
O472        O  0.84023334  0.62004397  0.02599081    -0.69000
O473        O  0.87507124  0.58586844  0.03241337    -0.68600
O474        O  0.92250010  0.62492098  0.94598318    -0.59800
O475        O  0.91855958  0.63003702  0.03195676    -0.72300
O476        O  0.87912361  0.58092732  0.94652197    -0.71100
Cu477      Cu  0.86281753  0.64090098  0.98260557     1.04600
Cu478      Cu  0.90003475  0.60424495  0.98948947     1.04300
C479        C  0.85561491  0.59043729  0.92986750     0.95200
C480        C  0.90743361  0.65483756  0.04209317     0.94300
C481        C  0.91248144  0.64814046  0.92922215     0.86500
C482        C  0.85019931  0.59670679  0.04254554     0.92700
O483        O  0.35785329  0.91311559  0.97511075    -0.71000
O484        O  0.40686745  0.87189194  0.05953012    -0.72000
O485        O  0.40417943  0.87085221  0.97297596    -0.60600
O486        O  0.36045796  0.91409305  0.06145294    -0.69000
O487        O  0.32789538  0.87826074  0.06385851    -0.68600
O488        O  0.37161129  0.83504255  0.97552127    -0.59800
O489        O  0.37429532  0.83608659  0.06204777    -0.72300
O490        O  0.32525163  0.87733315  0.97747037    -0.71100
Cu491      Cu  0.38349350  0.89374293  0.01718959     1.04600
Cu492      Cu  0.34863211  0.85540783  0.01983666     1.04300
C493        C  0.33391822  0.90172940  0.96309943     0.95200
C494        C  0.39821693  0.84753763  0.07401880     0.94300
C495        C  0.39468637  0.84620897  0.96035358     0.86500
C496        C  0.33726182  0.90297335  0.07633296     0.92700
O497        O  0.13521607  0.58641143  0.44223580    -0.71000
O498        O  0.09125618  0.63424367  0.52622296    -0.72000
O499        O  0.09203004  0.63182466  0.43977140    -0.60600
O500        O  0.13442010  0.58870750  0.52887182    -0.69000
O501        O  0.16952503  0.62208449  0.52788843    -0.68600
O502        O  0.12710818  0.66523575  0.43881418    -0.59800
O503        O  0.12636682  0.66759484  0.52527480    -0.72300
O504        O  0.17027061  0.61982569  0.44131709    -0.71100
Cu505      Cu  0.11200161  0.60910864  0.48432091     1.04600
Cu506      Cu  0.14956521  0.64483931  0.48329634     1.04300
C507        C  0.15957823  0.59574111  0.42851853     0.95200
C508        C  0.10189815  0.65842378  0.53880681     0.94300
C509        C  0.10289957  0.65529332  0.42543940     0.86500
C510        C  0.15859451  0.59867236  0.54232958     0.92700
O511        O  0.38394293  0.15709496  0.55979791    -0.71000
O512        O  0.33353875  0.11798283  0.47599098    -0.72000
O513        O  0.33838048  0.11539099  0.56202959    -0.60600
O514        O  0.37944002  0.15968701  0.47390244    -0.69000
O515        O  0.41234521  0.12354565  0.46832588    -0.68600
O516        O  0.37137181  0.07931165  0.55662422    -0.59800
O517        O  0.36635439  0.08178127  0.47045821    -0.72300
O518        O  0.41705963  0.12114335  0.55446525    -0.71100
Cu519      Cu  0.35767305  0.13879157  0.51809338     1.04600
Cu520      Cu  0.39294348  0.10014490  0.51221951     1.04300
C521        C  0.40830828  0.14535097  0.57024868     0.95200
C522        C  0.34196316  0.09368123  0.46025182     0.94300
C523        C  0.34851118  0.09048392  0.57318676     0.86500
C524        C  0.40245670  0.14864055  0.45758052     0.92700
O525        O  0.91432200  0.36880324  0.52938217    -0.71000
O526        O  0.87330815  0.41120176  0.43846587    -0.72000
O527        O  0.86957444  0.41264919  0.52465888    -0.60600
O528        O  0.91804416  0.36734096  0.44305946    -0.69000
O529        O  0.88422681  0.33267809  0.44121584    -0.68600
O530        O  0.83573390  0.37801282  0.52283686    -0.59800
O531        O  0.83948010  0.37652866  0.43666904    -0.72300
O532        O  0.88049482  0.33413960  0.52760195    -0.71100
Cu533      Cu  0.89501861  0.39120452  0.48394413     1.04600
Cu534      Cu  0.85880633  0.35410460  0.48200006     1.04300
C535        C  0.90384427  0.34484123  0.54268900     0.95200
C536        C  0.84984384  0.40060430  0.42360564     0.94300
C537        C  0.84505474  0.40244947  0.53645529     0.86500
C538        C  0.90869459  0.34294731  0.42934587     0.92700
O539        O  0.58251233  0.86640886  0.47566412    -0.71000
O540        O  0.62750116  0.91152703  0.55980884    -0.72000
O541        O  0.62609819  0.91051540  0.47348814    -0.60600
O542        O  0.58383767  0.86749955  0.56206907    -0.69000
O543        O  0.61860824  0.83295335  0.56172146    -0.68600
O544        O  0.66094268  0.87604855  0.47291120    -0.59800
O545        O  0.66233099  0.87703754  0.55933281    -0.72300
O546        O  0.61729588  0.83186807  0.47517194    -0.71100
Cu547      Cu  0.60375492  0.89017338  0.51777142     1.04600
Cu548      Cu  0.64101273  0.85323413  0.51726655     1.04300
C549        C  0.59285542  0.84209108  0.46228144     0.95200
C550        C  0.65203643  0.90142893  0.57254704     0.94300
C551        C  0.65021478  0.90014807  0.45953443     0.86500
C552        C  0.59458028  0.84352030  0.57574631     0.92700
C553        C  0.30854603  0.06724077  0.40585690    -0.11300
C554        C  0.32363866  0.07946174  0.43072665    -0.12900
C555        C  0.30767736  0.93182325  0.13314578    -0.11300
C556        C  0.32130167  0.91859837  0.10737304    -0.12900
C557        C  0.07423567  0.68412958  0.36807141    -0.11300
C558        C  0.08750843  0.67087158  0.39400167    -0.12900
C559        C  0.93439943  0.68649598  0.09810844    -0.11300
C560        C  0.92181969  0.67236489  0.07245762    -0.12900
C561        C  0.67859444  0.92990815  0.40317025    -0.11300
C562        C  0.66564780  0.91607299  0.42864125    -0.12900
C563        C  0.67591416  0.06480959  0.12761330    -0.11300
C564        C  0.66316768  0.07879808  0.10182181    -0.12900
C565        C  0.08250450  0.00187673  0.22876117    -0.14500
C566        C  0.09831824  0.00746264  0.26239886    -0.29700
H567        H  0.09347456  0.99806930  0.19985740     0.14500
H568        H  0.08722988  0.01288787  0.29075880     0.15100
C569        C  0.99967189  0.89415682  0.24652263    -0.14500
C570        C  0.99225741  0.91231392  0.21605766    -0.29700
H571        H  0.00640717  0.90318000  0.27566216     0.14500
H572        H  0.98702861  0.90346725  0.18623215     0.15100
C573        C  0.88588509  0.99627219  0.26306768    -0.14500
C574        C  0.90180860  0.00349693  0.23019473    -0.29700
H575        H  0.89687639  0.98889592  0.29057547     0.14500
H576        H  0.89088808  0.00973923  0.20213897     0.15100
C577        C  0.92584696  0.32696012  0.39980128    -0.11300
C578        C  0.93994066  0.31395325  0.37424003    -0.12900
C579        C  0.08459042  0.33395473  0.06941626    -0.11300
C580        C  0.07022762  0.32123057  0.09449362    -0.12900
C581        C  0.99729090  0.11014744  0.21080257    -0.14500
C582        C  0.99220116  0.09209875  0.24223256    -0.29700
H583        H  0.00211183  0.10104493  0.18090708     0.14500
H584        H  0.98857881  0.10104775  0.27249916     0.15100
C585        C  0.66839886  0.91789401  0.60199252    -0.11300
C586        C  0.68198905  0.93201989  0.62656104    -0.12900
C587        C  0.66446740  0.08216841  0.92614224    -0.11300
C588        C  0.67764766  0.06896298  0.89988076    -0.12900
C589        C  0.91870044  0.32959308  0.57495089    -0.11300
C590        C  0.93154223  0.31662909  0.60159156    -0.12900
C591        C  0.07207167  0.31455873  0.87141445    -0.11300
C592        C  0.08620314  0.32819350  0.89601545    -0.12900
C593        C  0.32064740  0.06176969  0.63069934    -0.11300
C594        C  0.33383136  0.07475426  0.60474277    -0.12900
C595        C  0.31666247  0.91659851  0.93272349    -0.11300
C596        C  0.30330415  0.92962096  0.90656398    -0.12900
C597        C  0.90658473  0.99968432  0.73706374    -0.14500
C598        C  0.88849214  0.00402636  0.76887408    -0.29700
H599        H  0.89770748  0.99691920  0.70665221     0.14500
H600        H  0.89759047  0.00838598  0.79881810     0.15100
C601        C  0.99557649  0.08857830  0.76894411    -0.14500
C602        C  0.99107714  0.10705252  0.73768617    -0.29700
H603        H  0.99892887  0.09716774  0.79943971     0.14500
H604        H  0.98616782  0.09818669  0.70774318     0.15100
C605        C  0.10489522  0.00182850  0.73828202    -0.14500
C606        C  0.08566187  0.99611821  0.76802329    -0.29700
H607        H  0.09704689  0.00866830  0.70854236     0.14500
H608        H  0.09347034  0.99019648  0.79813036     0.15100
C609        C  0.07262736  0.68915557  0.59437857    -0.11300
C610        C  0.08611276  0.67550587  0.56875543    -0.12900
C611        C  0.92929294  0.66213712  0.89827102    -0.11300
C612        C  0.94297893  0.67481979  0.87260750    -0.12900
C613        C  0.99675886  0.88957941  0.76171743    -0.14500
C614        C  0.00048161  0.90937265  0.73209822    -0.29700
H615        H  0.99071217  0.89693427  0.79210102     0.14500
H616        H  0.00573431  0.90205010  0.70144754     0.15100
C617        C  0.84146801  0.57302456  0.89928662    -0.11300
C618        C  0.82875649  0.55889063  0.87384804    -0.12900
C619        C  0.82784891  0.41859769  0.56583158    -0.11300
C620        C  0.81419816  0.43204060  0.59146370    -0.12900
C621        C  0.58009695  0.17788630  0.92946894    -0.11300
C622        C  0.56704163  0.19171259  0.90378065    -0.12900
C623        C  0.42600221  0.15984705  0.60018340    -0.11300
C624        C  0.43954516  0.17355883  0.62524261    -0.12900
C625        C  0.17947355  0.41395936  0.89211754    -0.11300
C626        C  0.19284161  0.42683211  0.86612626    -0.12900
C627        C  0.18698123  0.57035751  0.60049884    -0.11300
C628        C  0.17380655  0.58326747  0.57412575    -0.12900
C629        C  0.59467418  0.49663829  0.73268394    -0.14500
C630        C  0.61422468  0.50077013  0.76255926    -0.29700
H631        H  0.60220076  0.49163007  0.70205948     0.14500
H632        H  0.60668895  0.50670163  0.79289752     0.15100
C633        C  0.50701992  0.41057592  0.76364259    -0.14500
C634        C  0.50051789  0.39155105  0.73377353    -0.29700
H635        H  0.51304690  0.40242719  0.79352980     0.14500
H636        H  0.49343826  0.39970072  0.70430368     0.15100
C637        C  0.41576421  0.50247563  0.76560330    -0.14500
C638        C  0.39784857  0.50969725  0.73468667    -0.29700
H639        H  0.40679008  0.49763762  0.79541845     0.14500
H640        H  0.40709968  0.51626487  0.70567744     0.15100
C641        C  0.42326306  0.81769034  0.90207537    -0.11300
C642        C  0.41019758  0.83078798  0.92858395    -0.12900
C643        C  0.56613629  0.81546589  0.63365404    -0.11300
C644        C  0.57930703  0.82820786  0.60734204    -0.12900
C645        C  0.49712652  0.60799167  0.77146179    -0.14500
C646        C  0.50397292  0.59057730  0.73961854    -0.29700
H647        H  0.49125092  0.59821904  0.80040388     0.14500
H648        H  0.50803140  0.60009470  0.70993190     0.15100
C649        C  0.17797396  0.41922147  0.06754234    -0.11300
C650        C  0.19123082  0.43242829  0.09350768    -0.12900
C651        C  0.18840369  0.56545428  0.37210187    -0.11300
C652        C  0.17514953  0.57902922  0.39800348    -0.12900
C653        C  0.42995761  0.81985395  0.12953467    -0.11300
C654        C  0.41565165  0.83274020  0.10423612    -0.12900
C655        C  0.56309200  0.81300292  0.40657348    -0.11300
C656        C  0.57674669  0.82606145  0.43215993    -0.12900
C657        C  0.81933204  0.56921778  0.09813660    -0.11300
C658        C  0.83313990  0.58220829  0.07285406    -0.12900
C659        C  0.82116485  0.42979168  0.36668374    -0.11300
C660        C  0.83454590  0.41627526  0.39221906    -0.12900
C661        C  0.41483509  0.50086159  0.27064145    -0.14500
C662        C  0.39868530  0.49507702  0.23741741    -0.29700
H663        H  0.40412697  0.50493187  0.29966479     0.14500
H664        H  0.40949688  0.48939117  0.20894856     0.15100
C665        C  0.50006550  0.60833357  0.25159176    -0.14500
C666        C  0.50568111  0.58999850  0.28260271    -0.29700
H667        H  0.49469754  0.59947426  0.22180608     0.14500
H668        H  0.50983378  0.59872093  0.31282385     0.15100
C669        C  0.59539225  0.49818722  0.26921811    -0.14500
C670        C  0.61149613  0.50496937  0.23639747    -0.29700
H671        H  0.60612269  0.49223037  0.29752474     0.14500
H672        H  0.60072323  0.51205949  0.20858823     0.15100
C673        C  0.56643586  0.18805240  0.12984425    -0.11300
C674        C  0.57929230  0.17457961  0.10361300    -0.12900
C675        C  0.41772521  0.16491585  0.42710253    -0.11300
C676        C  0.43098142  0.17894362  0.40228844    -0.12900
C677        C  0.50573458  0.41018804  0.25645890    -0.14500
C678        C  0.50067556  0.39208403  0.28780644    -0.29700
H679        H  0.50979610  0.40126437  0.22627242     0.14500
H680        H  0.49528918  0.40111882  0.31755901     0.15100
loop_ 
_geom_bond_atom_site_label_1 
_geom_bond_atom_site_label_2 
_geom_bond_distance 
_geom_bond_site_symmetry_2 
_ccdc_geom_bond_type 
N1            N2   1.322       .  A
N1            C5   1.345       .  A
N1           Cu9   2.066       .  S
N2            C3   1.345       .  A
N2           Cu8   2.075       .  S
C3            C4   1.380       .  A
C3            H6   1.082       .  S
C4            C5   1.378       .  A
C4          C676   1.436       .  S
C5            H7   1.082       .  S
Cu8          N11   2.075       .  S
Cu9          N19   2.066       .  S
Cu10         N12   2.076       .  S
Cu10         N18   2.076       .  S
N11          N12   1.322       .  A
N11          C15   1.345       .  A
N12          C13   1.346       .  A
C13          C14   1.386       .  A
C13          H16   1.082       .  S
C14          C15   1.381       .  A
C14         C678   1.477       .  S
C15          H17   1.082       .  S
N18          N19   1.323       .  A
N18          C22   1.346       .  A
N19          C20   1.344       .  A
C20          C21   1.377       .  A
C20          H23   1.082       .  S
C21          C22   1.380       .  A
C21         C673   1.435       .  S
C22          H24   1.082       .  S
O25         Cu33   2.014       .  S
O25          C35   1.279       .  A
O26         Cu33   2.011       .  S
O26          C36   1.278       .  A
O27         Cu33   2.012       .  S
O27          C37   1.277       .  A
O28         Cu33   2.015       .  S
O28          C38   1.279       .  A
O29         Cu34   2.011       .  S
O29          C38   1.277       .  A
O30         Cu34   2.010       .  S
O30          C37   1.278       .  A
O31         Cu34   2.009       .  S
O31          C36   1.277       .  A
O32         Cu34   2.012       .  S
O32          C35   1.277       .  A
Cu33        Cu34   2.373       .  S
C35         C661   1.477       .  S
C36         C669   1.475       .  S
C37         C677   1.476       .  S
C38         C666   1.477       .  S
N39          N40   1.322       .  A
N39          C43   1.345       .  A
N39         Cu47   2.076       .  S
N40          C41   1.345       .  A
N40         Cu46   2.071       .  S
C41          C42   1.382       .  A
C41          H44   1.082       .  S
C42          C43   1.386       .  A
C42         C670   1.477       .  S
C43          H45   1.082       .  S
Cu46         N49   2.071       .  S
Cu47         N57   2.076       .  S
Cu48         N50   2.068       .  S
Cu48         N56   2.068       .  S
N49          N50   1.323       .  A
N49          C53   1.345       .  A
N50          C51   1.344       .  A
C51          C52   1.378       .  A
C51          H54   1.082       .  S
C52          C53   1.379       .  A
C52         C657   1.434       .  S
C53          H55   1.082       .  S
N56          N57   1.323       .  A
N56          C60   1.345       .  A
N57          C58   1.346       .  A
C58          C59   1.380       .  A
C58          H61   1.082       .  S
C59          C60   1.378       .  A
C59         C659   1.436       .  S
C60          H62   1.082       .  S
N63          N64   1.322       .  A
N63          C67   1.347       .  A
N63         Cu71   2.076       .  S
N64          C65   1.345       .  A
N64         Cu70   2.073       .  S
C65          C66   1.380       .  A
C65          H68   1.082       .  S
C66          C67   1.381       .  A
C66         C653   1.439       .  S
C67          H69   1.082       .  S
Cu70         N73   2.073       .  S
Cu71         N81   2.076       .  S
Cu72         N74   2.078       .  S
Cu72         N80   2.078       .  S
N73          N74   1.322       .  A
N73          C77   1.344       .  A
N74          C75   1.347       .  A
C75          C76   1.387       .  A
C75          H78   1.082       .  S
C76          C77   1.381       .  A
C76         C665   1.478       .  S
C77          H79   1.082       .  S
N80          N81   1.324       .  A
N80          C84   1.346       .  A
N81          C82   1.345       .  A
C82          C83   1.379       .  A
C82          H85   1.082       .  S
C83          C84   1.380       .  A
C83         C655   1.438       .  S
C84          H86   1.082       .  S
N87          N88   1.323       .  A
N87          C91   1.347       .  A
N87         Cu95   2.080       .  S
N88          C89   1.347       .  A
N88         Cu94   2.081       .  S
C89          C90   1.381       .  A
C89          H92   1.082       .  S
C90          C91   1.381       .  A
C90         C650   1.442       .  S
C91          H93   1.082       .  S
Cu94         N97   2.081       .  S
Cu95        N105   2.081       .  S
Cu96         N98   2.077       .  S
Cu96        N104   2.077       .  S
N97          N98   1.323       .  A
N97         C101   1.346       .  A
N98          C99   1.346       .  A
C99         C100   1.386       .  A
C99         H102   1.082       .  S
C100        C101   1.383       .  A
C100        C662   1.479       .  S
C101        H103   1.082       .  S
N104        N105   1.324       .  A
N104        C108   1.346       .  A
N105        C106   1.347       .  A
C106        C107   1.381       .  A
C106        H109   1.082       .  S
C107        C108   1.380       .  A
C107        C651   1.441       .  S
C108        H110   1.082       .  S
N111        N112   1.323       .  A
N111        C115   1.346       .  A
N111       Cu119   2.078       .  S
N112        C113   1.346       .  A
N112       Cu118   2.079       .  S
C113        C114   1.380       .  A
C113        H116   1.082       .  S
C114        C115   1.380       .  A
C114        C641   1.440       .  S
C115        H117   1.082       .  S
Cu118       N121   2.079       .  S
Cu119       N129   2.078       .  S
Cu120       N122   2.076       .  S
Cu120       N128   2.076       .  S
N121        N122   1.322       .  A
N121        C125   1.345       .  A
N122        C123   1.347       .  A
C123        C124   1.385       .  A
C123        H126   1.082       .  S
C124        C125   1.383       .  A
C124        C645   1.478       .  S
C125        H127   1.082       .  S
N128        N129   1.324       .  A
N128        C132   1.346       .  A
N129        C130   1.347       .  A
C130        C131   1.381       .  A
C130        H133   1.082       .  S
C131        C132   1.379       .  A
C131        C643   1.439       .  S
C132        H134   1.082       .  S
O135       Cu143   2.022       .  S
O135        C145   1.279       .  A
O136       Cu143   2.025       .  S
O136        C146   1.281       .  A
O137       Cu143   2.002       .  S
O137        C147   1.277       .  A
O138       Cu143   2.000       .  S
O138        C148   1.275       .  A
O139       Cu144   2.021       .  S
O139        C148   1.280       .  A
O140       Cu144   2.019       .  S
O140        C147   1.278       .  A
O141       Cu144   2.003       .  S
O141        C146   1.276       .  A
O142       Cu144   2.007       .  S
O142        C145   1.278       .  A
Cu143      Cu144   2.373       .  S
C145        C646   1.479       .  S
C146        C633   1.478       .  S
C147        C637   1.476       .  S
C148        C629   1.476       .  S
N149        N150   1.322       .  A
N149        C153   1.344       .  A
N149       Cu157   2.071       .  S
N150        C151   1.347       .  A
N150       Cu156   2.078       .  S
C151        C152   1.386       .  A
C151        H154   1.082       .  S
C152        C153   1.381       .  A
C152        C638   1.475       .  S
C153        H155   1.082       .  S
Cu156       N159   2.078       .  S
Cu157       N167   2.071       .  S
Cu158       N160   2.076       .  S
Cu158       N166   2.076       .  S
N159        N160   1.323       .  A
N159        C163   1.346       .  A
N160        C161   1.346       .  A
C161        C162   1.380       .  A
C161        H164   1.082       .  S
C162        C163   1.380       .  A
C162        C626   1.439       .  S
C163        H165   1.082       .  S
N166        N167   1.323       .  A
N166        C170   1.346       .  A
N167        C168   1.345       .  A
C168        C169   1.379       .  A
C168        H171   1.082       .  S
C169        C170   1.380       .  A
C169        C627   1.438       .  S
C170        H172   1.082       .  S
N173        N174   1.323       .  A
N173        C177   1.345       .  A
N173       Cu181   2.075       .  S
N174        C175   1.347       .  A
N174       Cu180   2.088       .  S
C175        C176   1.388       .  A
C175        H178   1.081       .  S
C176        C177   1.381       .  A
C176        C634   1.481       .  S
C177        H179   1.082       .  S
Cu180       N183   2.088       .  S
Cu181       N191   2.074       .  S
Cu182       N184   2.074       .  S
Cu182       N190   2.074       .  S
N183        N184   1.324       .  A
N183        C187   1.349       .  A
N184        C185   1.345       .  A
C185        C186   1.378       .  A
C185        H188   1.082       .  S
C186        C187   1.383       .  A
C186        C622   1.441       .  S
C187        H189   1.082       .  S
N190        N191   1.322       .  A
N190        C194   1.346       .  A
N191        C192   1.345       .  A
C192        C193   1.380       .  A
C192        H195   1.082       .  S
C193        C194   1.380       .  A
C193        C624   1.439       .  S
C194        H196   1.082       .  S
N197        N198   1.321       .  A
N197        C201   1.347       .  A
N197       Cu205   2.078       .  S
N198        C199   1.344       .  A
N198       Cu204   2.062       .  S
C199        C200   1.378       .  A
C199        H202   1.082       .  S
C200        C201   1.382       .  A
C200        C618   1.438       .  S
C201        H203   1.082       .  S
Cu204       N207   2.062       .  S
Cu205       N215   2.078       .  S
Cu206       N208   2.089       .  S
Cu206       N214   2.089       .  S
N207        N208   1.323       .  A
N207        C211   1.342       .  A
N208        C209   1.348       .  A
C209        C210   1.389       .  A
C209        H212   1.082       .  S
C210        C211   1.378       .  A
C210        C630   1.477       .  S
C211        H213   1.082       .  S
N214        N215   1.325       .  A
N214        C218   1.349       .  A
N215        C216   1.345       .  A
C216        C217   1.378       .  A
C216        H219   1.082       .  S
C217        C218   1.382       .  A
C217        C620   1.441       .  S
C218        H220   1.082       .  S
N221        N222   1.322   1_655  A
N221        C225   1.342       .  A
N221       Cu229   2.059       .  S
N222        C223   1.350       .  A
N222       Cu228   2.097       .  S
C223        C224   1.391       .  A
C223        H226   1.082       .  S
C224        C225   1.378   1_455  A
C224        C613   1.479   1_455  S
C225        H227   1.082       .  S
Cu228       N231   2.097       .  S
Cu229       N239   2.058       .  S
Cu230       N232   2.071       .  S
Cu230       N238   2.070   1_455  S
N231        N232   1.325       .  A
N231        C235   1.349       .  A
N232        C233   1.345       .  A
C233        C234   1.377       .  A
C233        H236   1.082       .  S
C234        C235   1.384       .  A
C234        C609   1.442       .  S
C235        H237   1.082       .  S
N238        N239   1.321       .  A
N238        C242   1.346       .  A
N239        C240   1.343       .  A
C240        C241   1.376       .  A
C240        H243   1.082       .  S
C241        C242   1.380       .  A
C241        C612   1.432       .  S
C242        H244   1.082       .  S
O245       Cu253   2.008       .  S
O245        C255   1.278       .  A
O246       Cu253   2.005   1_465  S
O246        C256   1.276   1_455  A
O247       Cu253   2.019       .  S
O247        C257   1.278   1_545  A
O248       Cu253   2.017   1_455  S
O248        C258   1.280   1_545  A
O249       Cu254   1.999   1_455  S
O249        C258   1.275       .  A
O250       Cu254   2.005       .  S
O250        C257   1.278       .  A
O251       Cu254   2.025       .  S
O251        C256   1.281       .  A
O252       Cu254   2.026   1_545  S
O252        C255   1.279       .  A
Cu253      Cu254   2.373   1_545  S
C255        C601   1.482       .  S
C256        C614   1.479   1_655  S
C257        C597   1.477       .  S
C258        C606   1.474       .  S
N259        N260   1.322       .  A
N259        C263   1.347       .  A
N259       Cu267   2.076   1_545  S
N260        C261   1.343       .  A
N260       Cu266   2.062       .  S
C261        C262   1.377       .  A
C261        H264   1.082       .  S
C262        C263   1.381       .  A
C262        C593   1.435       .  S
C263        H265   1.082       .  S
Cu266       N269   2.062       .  S
Cu267       N277   2.076       .  S
Cu268       N270   2.084       .  S
Cu268       N276   2.085       .  S
N269        N270   1.322   1_545  A
N269        C273   1.343       .  A
N270        C271   1.346       .  A
C271        C272   1.388       .  A
C271        H274   1.081       .  S
C272        C273   1.379   1_565  A
C272        C605   1.476   1_565  S
C273        H275   1.082       .  S
N276        N277   1.324       .  A
N276        C280   1.348       .  A
N277        C278   1.345       .  A
C278        C279   1.379       .  A
C278        H281   1.082       .  S
C279        C280   1.382       .  A
C279        C596   1.440       .  S
C280        H282   1.082       .  S
N283        N284   1.322       .  A
N283        C287   1.346       .  A
N283       Cu291   2.076   1_655  S
N284        C285   1.345       .  A
N284       Cu290   2.071       .  S
C285        C286   1.379       .  A
C285        H288   1.082       .  S
C286        C287   1.381       .  A
C286        C590   1.438       .  S
C287        H289   1.082       .  S
Cu290       N293   2.072       .  S
Cu291       N301   2.077       .  S
Cu292       N294   2.091       .  S
Cu292       N300   2.091       .  S
N293        N294   1.323   1_655  A
N293        C297   1.343       .  A
N294        C295   1.350       .  A
C295        C296   1.389   1_455  A
C295        H298   1.082       .  S
C296        C297   1.380       .  A
C296        C602   1.479       .  S
C297        H299   1.082       .  S
N300        N301   1.325       .  A
N300        C304   1.348       .  A
N301        C302   1.346       .  A
C302        C303   1.379       .  A
C302        H305   1.082       .  S
C303        C304   1.382       .  A
C303        C591   1.443       .  S
C304        H306   1.082       .  S
N307        N308   1.323   1_545  A
N307        C311   1.343       .  A
N307       Cu315   2.072       .  S
N308        C309   1.347       .  A
N308       Cu314   2.082       .  S
C309        C310   1.386   1_565  A
C309        H312   1.082       .  S
C310        C311   1.380       .  A
C310        C598   1.476       .  S
C311        H313   1.082       .  S
Cu314       N317   2.082       .  S
Cu315       N325   2.072       .  S
Cu316       N318   2.075   1_545  S
Cu316       N324   2.074       .  S
N317        N318   1.324       .  A
N317        C321   1.347       .  A
N318        C319   1.345       .  A
C319        C320   1.379       .  A
C319        H322   1.082       .  S
C320        C321   1.381       .  A
C320        C586   1.439       .  S
C321        H323   1.082       .  S
N324        N325   1.322       .  A
N324        C328   1.346       .  A
N325        C326   1.346       .  A
C326        C327   1.380       .  A
C326        H329   1.082       .  S
C327        C328   1.380       .  A
C327        C588   1.438       .  S
C328        H330   1.082       .  S
N331        N332   1.322   1_655  A
N331        C335   1.346       .  A
N331       Cu339   2.075       .  S
N332        C333   1.345       .  A
N332       Cu338   2.076       .  S
C333        C334   1.382   1_455  A
C333        H336   1.082       .  S
C334        C335   1.386       .  A
C334        C581   1.478       .  S
C335        H337   1.082       .  S
Cu338       N341   2.076       .  S
Cu339       N349   2.076       .  S
Cu340       N342   2.076       .  S
Cu340       N348   2.077   1_455  S
N341        N342   1.323       .  A
N341        C345   1.346       .  A
N342        C343   1.347       .  A
C343        C344   1.380       .  A
C343        H346   1.082       .  S
C344        C345   1.380       .  A
C344        C580   1.439       .  S
C345        H347   1.082       .  S
N348        N349   1.324       .  A
N348        C352   1.346       .  A
N349        C350   1.346       .  A
C350        C351   1.380       .  A
C350        H353   1.082       .  S
C351        C352   1.380       .  A
C351        C578   1.439       .  S
C352        H354   1.082       .  S
O355       Cu363   2.014   1_545  S
O355        C365   1.278       .  A
O356       Cu363   2.014       .  S
O356        C366   1.279       .  A
O357       Cu363   2.009   1_445  S
O357        C367   1.278       .  A
O358       Cu363   2.010       .  S
O358        C368   1.278   1_565  A
O359       Cu364   2.015       .  S
O359        C368   1.278       .  A
O360       Cu364   2.017   1_455  S
O360        C367   1.278       .  A
O361       Cu364   2.009   1_565  S
O361        C366   1.276       .  A
O362       Cu364   2.009       .  S
O362        C365   1.278       .  A
Cu363      Cu364   2.373   1_565  S
C365        C582   1.477       .  S
C366        C570   1.477       .  S
C367        C565   1.477       .  S
C368        C574   1.477       .  S
N369        N370   1.324       .  A
N369        C373   1.347       .  A
N369       Cu377   2.080       .  S
N370        C371   1.347       .  A
N370       Cu376   2.081       .  S
C371        C372   1.381       .  A
C371        H374   1.082       .  S
C372        C373   1.380       .  A
C372        C561   1.441       .  S
C373        H375   1.082       .  S
Cu376       N379   2.081       .  S
Cu377       N387   2.080   1_565  S
Cu378       N380   2.075       .  S
Cu378       N386   2.075       .  S
N379        N380   1.322   1_565  A
N379        C383   1.346       .  A
N380        C381   1.345       .  A
C381        C382   1.386   1_545  A
C381        H384   1.081       .  S
C382        C383   1.384       .  A
C382        C573   1.479       .  S
C383        H385   1.082       .  S
N386        N387   1.323       .  A
N386        C390   1.346       .  A
N387        C388   1.347       .  A
C388        C389   1.381       .  A
C388        H391   1.082       .  S
C389        C390   1.380       .  A
C389        C563   1.440       .  S
C390        H392   1.082       .  S
N393        N394   1.324       .  A
N393        C397   1.346       .  A
N393       Cu401   2.077   1_655  S
N394        C395   1.348       .  A
N394       Cu400   2.085       .  S
C395        C396   1.382       .  A
C395        H398   1.082       .  S
C396        C397   1.379       .  A
C396        C559   1.441       .  S
C397        H399   1.082       .  S
Cu400       N403   2.084       .  S
Cu401       N411   2.076       .  S
Cu402       N404   2.069       .  S
Cu402       N410   2.068       .  S
N403        N404   1.323   1_655  A
N403        C407   1.348       .  A
N404        C405   1.343       .  A
C405        C406   1.379       .  A
C405        H408   1.082       .  S
C406        C407   1.387   1_455  A
C406        C569   1.476   1_455  S
C407        H409   1.082       .  S
N410        N411   1.322       .  A
N410        C414   1.345       .  A
N411        C412   1.346       .  A
C412        C413   1.380       .  A
C412        H415   1.082       .  S
C413        C414   1.379       .  A
C413        C557   1.437       .  S
C414        H416   1.082       .  S
N417        N418   1.322       .  A
N417        C421   1.345       .  A
N417       Cu425   2.069       .  S
N418        C419   1.346       .  A
N418       Cu424   2.072       .  S
C419        C420   1.380       .  A
C419        H422   1.082       .  S
C420        C421   1.379       .  A
C420        C555   1.437       .  S
C421        H423   1.082       .  S
Cu424       N427   2.072       .  S
Cu425       N435   2.069   1_565  S
Cu426       N428   2.086       .  S
Cu426       N434   2.086       .  S
N427        N428   1.323   1_565  A
N427        C431   1.345       .  A
N428        C429   1.347       .  A
C429        C430   1.384       .  A
C429        H432   1.082       .  S
C430        C431   1.384   1_545  A
C430        C566   1.478       .  S
C431        H433   1.082       .  S
N434        N435   1.323       .  A
N434        C438   1.348       .  A
N435        C436   1.344       .  A
C436        C437   1.378       .  A
C436        H439   1.082       .  S
C437        C438   1.383       .  A
C437        C553   1.440       .  S
C438        H440   1.082       .  S
O441       Cu449   2.017       .  S
O441        C451   1.277       .  A
O442       Cu449   2.017   1_554  S
O442        C452   1.277       .  A
O443       Cu449   2.010       .  S
O443        C453   1.276       .  A
O444       Cu449   2.011   1_554  S
O444        C454   1.276       .  A
O445       Cu450   2.013   1_554  S
O445        C454   1.277       .  A
O446       Cu450   2.015       .  S
O446        C453   1.277       .  A
O447       Cu450   2.017   1_554  S
O447        C452   1.277       .  A
O448       Cu450   2.016       .  S
O448        C451   1.277       .  A
Cu449      Cu450   2.378       .  S
C451        C592   1.441       .  S
C452        C649   1.441       .  S
C453        C625   1.437       .  S
C454        C579   1.437       .  S
O455       Cu463   2.009       .  S
O455        C465   1.276       .  A
O456       Cu463   2.013   1_556  S
O456        C466   1.277       .  A
O457       Cu463   2.015       .  S
O457        C467   1.277       .  A
O458       Cu463   2.014   1_556  S
O458        C468   1.277       .  A
O459       Cu464   2.016   1_556  S
O459        C468   1.277       .  A
O460       Cu464   2.015       .  S
O460        C467   1.277       .  A
O461       Cu464   2.009   1_556  S
O461        C466   1.276       .  A
O462       Cu464   2.007       .  S
O462        C465   1.276       .  A
Cu463      Cu464   2.379       .  S
C465        C674   1.433       .  S
C466        C587   1.436       .  S
C467        C564   1.439       .  S
C468        C621   1.440       .  S
O469       Cu477   2.012       .  S
O469        C479   1.277       .  A
O470       Cu477   2.016   1_554  S
O470        C480   1.277       .  A
O471       Cu477   2.004       .  S
O471        C481   1.276       .  A
O472       Cu477   2.007   1_554  S
O472        C482   1.276       .  A
O473       Cu478   2.004   1_554  S
O473        C482   1.276       .  A
O474       Cu478   2.003       .  S
O474        C481   1.275       .  A
O475       Cu478   2.014   1_554  S
O475        C480   1.277       .  A
O476       Cu478   2.012       .  S
O476        C479   1.276       .  A
Cu477      Cu478   2.380       .  S
C479        C617   1.437       .  S
C480        C560   1.440       .  S
C481        C611   1.430       .  S
C482        C658   1.432       .  S
O483       Cu491   2.012   1_556  S
O483        C493   1.277       .  A
O484       Cu491   2.013       .  S
O484        C494   1.277       .  A
O485       Cu491   2.013   1_556  S
O485        C495   1.277       .  A
O486       Cu491   2.011       .  S
O486        C496   1.277       .  A
O487       Cu492   2.009       .  S
O487        C496   1.276       .  A
O488       Cu492   2.012   1_556  S
O488        C495   1.277       .  A
O489       Cu492   2.014       .  S
O489        C494   1.277       .  A
O490       Cu492   2.016   1_556  S
O490        C493   1.277       .  A
Cu491      Cu492   2.379       .  S
C493        C595   1.438       .  S
C494        C654   1.438       .  S
C495        C642   1.438       .  S
C496        C556   1.435       .  S
O497       Cu505   2.017       .  S
O497        C507   1.277       .  A
O498       Cu505   2.016       .  S
O498        C508   1.277       .  A
O499       Cu505   2.009       .  S
O499        C509   1.276       .  A
O500       Cu505   2.011       .  S
O500        C510   1.276       .  A
O501       Cu506   2.011       .  S
O501        C510   1.277       .  A
O502       Cu506   2.010       .  S
O502        C509   1.276       .  A
O503       Cu506   2.015       .  S
O503        C508   1.277       .  A
O504       Cu506   2.014       .  S
O504        C507   1.277       .  A
Cu505      Cu506   2.379       .  S
C507        C652   1.439       .  S
C508        C610   1.440       .  S
C509        C558   1.435       .  S
C510        C628   1.436       .  S
O511       Cu519   2.007       .  S
O511        C521   1.276       .  A
O512       Cu519   2.011       .  S
O512        C522   1.276       .  A
O513       Cu519   2.007       .  S
O513        C523   1.276       .  A
O514       Cu519   2.008       .  S
O514        C524   1.276       .  A
O515       Cu520   2.009       .  S
O515        C524   1.276       .  A
O516       Cu520   2.008       .  S
O516        C523   1.276       .  A
O517       Cu520   2.018       .  S
O517        C522   1.278       .  A
O518       Cu520   2.018       .  S
O518        C521   1.277       .  A
Cu519      Cu520   2.380       .  S
C521        C623   1.437       .  S
C522        C554   1.439       .  S
C523        C594   1.433       .  S
C524        C675   1.434       .  S
O525       Cu533   2.010       .  S
O525        C535   1.276       .  A
O526       Cu533   2.009       .  S
O526        C536   1.276       .  A
O527       Cu533   2.014       .  S
O527        C537   1.277       .  A
O528       Cu533   2.013       .  S
O528        C538   1.277       .  A
O529       Cu534   2.014       .  S
O529        C538   1.277       .  A
O530       Cu534   2.014       .  S
O530        C537   1.277       .  A
O531       Cu534   2.008       .  S
O531        C536   1.276       .  A
O532       Cu534   2.011       .  S
O532        C535   1.277       .  A
Cu533      Cu534   2.379       .  S
C535        C589   1.436       .  S
C536        C660   1.434       .  S
C537        C619   1.439       .  S
C538        C577   1.437       .  S
O539       Cu547   2.011       .  S
O539        C549   1.276       .  A
O540       Cu547   2.012       .  S
O540        C550   1.277       .  A
O541       Cu547   2.012       .  S
O541        C551   1.277       .  A
O542       Cu547   2.011       .  S
O542        C552   1.276       .  A
O543       Cu548   2.016       .  S
O543        C552   1.277       .  A
O544       Cu548   2.016       .  S
O544        C551   1.277       .  A
O545       Cu548   2.012       .  S
O545        C550   1.277       .  A
O546       Cu548   2.012       .  S
O546        C549   1.277       .  A
Cu547      Cu548   2.379       .  S
C549        C656   1.436       .  S
C550        C585   1.437       .  S
C551        C562   1.439       .  S
C552        C644   1.438       .  S
C553        C554   1.208       .  T
C555        C556   1.206       .  T
C557        C558   1.206       .  T
C559        C560   1.208       .  T
C561        C562   1.208       .  T
C563        C564   1.208       .  T
C565        C566   1.345       .  D
C565        H567   1.086   1_545  S
C566        H568   1.086       .  S
C569        C570   1.342       .  D
C569        H571   1.087   1_655  S
C570        H572   1.086       .  S
C573        C574   1.345   1_565  D
C573        H575   1.086       .  S
C574        H576   1.085       .  S
C577        C578   1.207       .  T
C579        C580   1.207       .  T
C581        C582   1.345       .  D
C581        H583   1.086   1_655  S
C582        H584   1.085       .  S
C585        C586   1.207       .  T
C587        C588   1.206       .  T
C589        C590   1.206       .  T
C591        C592   1.209       .  T
C593        C594   1.205       .  T
C595        C596   1.208       .  T
C597        C598   1.344   1_565  D
C597        H599   1.086       .  S
C598        H600   1.087       .  S
C601        C602   1.345       .  D
C601        H603   1.086       .  S
C602        H604   1.087       .  S
C605        C606   1.341   1_545  D
C605        H607   1.086       .  S
C606        H608   1.086       .  S
C609        C610   1.209       .  T
C611        C612   1.203       .  T
C613        C614   1.342   1_655  D
C613        H615   1.086       .  S
C614        H616   1.086       .  S
C617        C618   1.207       .  T
C619        C620   1.208       .  T
C621        C622   1.208       .  T
C623        C624   1.207       .  T
C625        C626   1.207       .  T
C627        C628   1.206       .  T
C629        C630   1.341       .  D
C629        H631   1.086       .  S
C630        H632   1.086       .  S
C633        C634   1.343       .  D
C633        H635   1.086       .  S
C634        H636   1.086       .  S
C637        C638   1.344       .  D
C637        H639   1.086       .  S
C638        H640   1.087       .  S
C641        C642   1.207       .  T
C643        C644   1.207       .  T
C645        C646   1.345       .  D
C645        H647   1.086       .  S
C646        H648   1.086       .  S
C649        C650   1.209       .  T
C651        C652   1.208       .  T
C653        C654   1.207       .  T
C655        C656   1.206       .  T
C657        C658   1.204       .  T
C659        C660   1.205       .  T
C661        C662   1.344       .  D
C661        H663   1.086       .  S
C662        H664   1.086       .  S
C665        C666   1.343       .  D
C665        H667   1.087       .  S
C666        H668   1.086       .  S
C669        C670   1.344       .  D
C669        H671   1.085       .  S
C670        H672   1.086       .  S
C673        C674   1.205       .  T
C675        C676   1.205       .  T
C677        C678   1.344       .  D
C677        H679   1.086       .  S
C678        H680   1.086       .  S
