geometry optimzed in LAMMPS
_audit_creation_date              2020-11-30 
_audit_creation_method            'lammps2cif' 
_symmetry_space_group_name_H-M    'P1' 
_symmetry_Int_Tables_number       1 
_symmetry_cell_setting            triclinic 
loop_ 
_symmetry_equiv_pos_as_xyz 
  x,y,z 
_cell_length_a                    25.60556298123446 
_cell_length_b                    42.711020825620736 
_cell_length_c                    26.51587270550819 
_cell_angle_alpha                 89.22604310102163 
_cell_angle_beta                  88.73525687902416 
_cell_angle_gamma                 88.41370552588118 
loop_ 
_atom_site_label 
_atom_site_type_symbol 
_atom_site_fract_x 
_atom_site_fract_y 
_atom_site_fract_z 
_atom_site_charge 
O1          O  0.42701518  0.19654567  0.38129488    -0.75110
O2          O  0.36360002  0.22093443  0.42992180    -0.54010
C3          C  0.37957620  0.20401674  0.39240436     0.78620
O4          O  0.58667817  0.18827468  0.60208591    -0.59710
O5          O  0.65725530  0.20360512  0.55576154    -0.52740
C6          C  0.63598203  0.19039038  0.59516104     0.70640
O7          O  0.41898038  0.18531542  0.58591405    -0.74260
O8          O  0.35863869  0.21778462  0.54828841    -0.54830
C9          C  0.37235443  0.19604712  0.57998612     0.76640
O10         O  0.59693875  0.19017705  0.37490065    -0.59410
O11         O  0.66227137  0.20276608  0.42753955    -0.52530
C12         C  0.64506207  0.19048785  0.38695027     0.73230
Zr13       Zr  0.51259032  0.20241093  0.41287796     2.54710
O14         O  0.50864892  0.14565205  0.42055201    -0.79970
O15         O  0.51635422  0.20014642  0.32111393    -0.93390
Zr16       Zr  0.50663563  0.19534360  0.55743068     2.64680
O17         O  0.51036529  0.13923961  0.54189713    -0.98350
O18         O  0.48037769  0.18812662  0.64529914    -0.80410
O19         O  0.45601069  0.20107794  0.48475659    -0.83770
O20         O  0.56305123  0.19359628  0.48539445    -2.18470
O21         O  0.60241568  0.29459519  0.38048400    -0.67150
O22         O  0.66499700  0.26599451  0.42179389    -0.51720
C23         C  0.64894352  0.28366176  0.38486622     0.71610
O24         O  0.43437389  0.30099089  0.60482889    -0.60060
O25         O  0.36811712  0.28351498  0.55706724    -0.52040
C26         C  0.38592123  0.29814445  0.59530783     0.73420
O27         O  0.60571320  0.29055534  0.59619689    -0.71460
O28         O  0.66982209  0.26656433  0.54864828    -0.50130
C29         C  0.65362387  0.28294374  0.58665886     0.74800
O30         O  0.43699920  0.30972435  0.39175180    -0.66790
O31         O  0.36814785  0.28717615  0.43267546    -0.53980
C32         C  0.38824195  0.30540393  0.39882202     0.73180
Zr33       Zr  0.52053921  0.29445811  0.42446255     2.77540
O34         O  0.53627689  0.34829562  0.44833223    -0.97540
O35         O  0.51646917  0.31630465  0.33938377    -0.78360
Zr36       Zr  0.51804362  0.28701463  0.56744899     2.70070
O37         O  0.52450196  0.34369291  0.56114762    -0.79600
O38         O  0.51636537  0.28860101  0.65933105    -0.98490
Zr39       Zr  0.41075622  0.25069723  0.49121642     2.21500
Zr40       Zr  0.61838822  0.23768044  0.48951395     2.11130
O41         O  0.57403455  0.28799825  0.49535694    -2.47380
O42         O  0.46493042  0.29542205  0.49644122    -0.79400
O43         O  0.56616149  0.24580195  0.41738723    -0.71590
O44         O  0.46256247  0.24401522  0.56364884    -2.32550
O45         O  0.46643219  0.25104615  0.41747980    -2.28760
O46         O  0.56243201  0.23801307  0.56262109    -0.73350
H47         H  0.58318920  0.17416728  0.48362163     0.78640
H48         H  0.44107125  0.24343255  0.59397003     0.79730
H49         H  0.59899459  0.30445853  0.49710323     0.81960
H50         H  0.44669254  0.25329502  0.38704817     0.79560
H51         H  0.48561947  0.20873133  0.66086031     0.42600
H52         H  0.53797491  0.27023006  0.67010771     0.41570
H53         H  0.48845823  0.35139533  0.55444099     0.41250
H54         H  0.57427869  0.34906544  0.45402402     0.39180
H55         H  0.50507513  0.29884027  0.31839420     0.42310
H56         H  0.49573279  0.21870815  0.30950286     0.37100
H57         H  0.47169758  0.14165425  0.42966744     0.43210
H58         H  0.54797822  0.13351290  0.53857973     0.39630
H59         H  0.53164411  0.36063208  0.41683534     0.44550
H60         H  0.49562286  0.18188073  0.31216112     0.43270
H61         H  0.49874312  0.12951744  0.57419382     0.43410
H62         H  0.53692229  0.30701377  0.66793696     0.43760
O63         O  0.90901327  0.18377091  0.92338446    -0.75110
O64         O  0.95560882  0.20708878  0.85928880    -0.54010
C65         C  0.91857575  0.18935510  0.87625985     0.78620
O66         O  0.90696530  0.30278274  0.08605089    -0.59710
O67         O  0.95413398  0.27863446  0.14861565    -0.52740
C68         C  0.91634768  0.29706127  0.13276070     0.70640
O69         O  0.91259128  0.30499773  0.92082369    -0.74260
O70         O  0.95704682  0.27747741  0.85932207    -0.54830
C71         C  0.92234191  0.29814359  0.87458702     0.76640
O72         O  0.91598621  0.18291642  0.08994741    -0.59410
O73         O  0.95925572  0.20676882  0.15254683    -0.52530
C74         C  0.92458303  0.18759787  0.13680468     0.73230
Zr75       Zr  0.94464154  0.19669355  0.00523733     2.54710
O76         O  0.84959892  0.19672933  0.01040901    -0.79970
O77         O  0.95495885  0.13983102  0.00672109    -0.93390
Zr78       Zr  0.94212994  0.28867723  0.00323735     2.64680
O79         O  0.84718304  0.28941665  0.99863268    -0.98350
O80         O  0.95067091  0.34522968  0.00678307    -0.80410
O81         O  0.94267400  0.24245632  0.95439147    -0.83770
O82         O  0.94354150  0.24271954  0.05400576    -2.18470
O83         O  0.13369874  0.18435899  0.08365413    -0.67150
O84         O  0.09013471  0.20988928  0.14718517    -0.51720
C85         C  0.12799832  0.19147174  0.13021460     0.71610
O86         O  0.12490764  0.29984027  0.91194548    -0.60060
O87         O  0.08021944  0.27396194  0.85220751    -0.52040
C88         C  0.11598289  0.29275609  0.86590818     0.73420
O89         O  0.12887537  0.30121062  0.07917652    -0.71460
O90         O  0.08315570  0.27780960  0.14389017    -0.50130
C91         C  0.12025354  0.29538031  0.12631530     0.74800
O92         O  0.12828463  0.17955128  0.92202818    -0.66790
O93         O  0.08477576  0.20466988  0.85896128    -0.53980
C94         C  0.12074644  0.18508053  0.87528749     0.73180
Zr95       Zr  0.09681866  0.19738801  0.00277680     2.77540
O96         O  0.18612401  0.21354443  0.98621114    -0.97540
O97         O  0.10684843  0.14079139  0.01133197    -0.78360
Zr98       Zr  0.09292985  0.28867175  0.99786821     2.70070
O99         O  0.18684308  0.29387899  0.98667684    -0.79600
O100        O  0.07599628  0.34502359  0.99700180    -0.98690
Zr101      Zr  0.01903326  0.24085598  0.90075745     2.21500
Zr102      Zr  0.01962333  0.24279833  0.10541144     2.11130
O103        O  0.09524213  0.24330493  0.05060080    -2.47380
O104        O  0.09494171  0.24222797  0.95047368    -0.79400
O105        O  0.02069419  0.19632342  0.05520376    -0.71590
O106        O  0.01711115  0.28834802  0.94892441    -2.32550
O107        O  0.02096265  0.19485026  0.95332994    -2.28760
O108        O  0.01801539  0.28936424  0.05271693    -0.73350
H109        H  0.91246267  0.24266064  0.07509778     0.78640
H110        H  0.01657635  0.30655105  0.92690115     0.79730
H111        H  0.12667279  0.24336134  0.06994212     0.81960
H112        H  0.02201524  0.17616481  0.93316949     0.79560
H113        H  0.96992226  0.35090177  0.97534729     0.42600
H114        H  0.06724117  0.35018416  0.03254061     0.41570
H115        H  0.19882762  0.27637582  0.96488121     0.41250
H116        H  0.19243865  0.22992225  0.01113922     0.39180
H117        H  0.07307800  0.13407683  0.02615946     0.42310
H118        H  0.97259266  0.13448027  0.97426467     0.37100
H119        H  0.83833214  0.21579692  0.99149688     0.43210
H120        H  0.83578544  0.27308593  0.02296728     0.39630
H121        H  0.20885317  0.19575998  0.99660050     0.44550
H122        H  0.91900960  0.13223965  0.00349995     0.43270
H123        H  0.83539567  0.30947440  0.01398515     0.43410
H124        H  0.11075044  0.35407878  0.99066292     0.43760
C125        C  0.76736388  0.12389532  0.74470116    -0.02300
O126        O  0.61680040  0.05597908  0.91721118    -0.75110
O127        O  0.58184258  0.03069938  0.85154948    -0.54010
C128        C  0.61299633  0.05110284  0.87013708     0.78620
O129        O  0.62857280  0.43458861  0.07760886    -0.59710
O130        O  0.57738277  0.45644894  0.13991724    -0.52740
C131        C  0.61765517  0.43958088  0.12435521     0.70640
O132        O  0.62671214  0.43115531  0.91304682    -0.74260
O133        O  0.58337002  0.45546505  0.84907227    -0.54830
C134        C  0.61825489  0.43549361  0.86598036     0.76640
O135        O  0.60948173  0.05357736  0.08033055    -0.59410
O136        O  0.56800679  0.02552503  0.14209498    -0.52530
C137        C  0.60147345  0.04610157  0.12689626     0.73230
Zr138      Zr  0.58111212  0.04010426  0.99720340     2.54710
O139        O  0.67510908  0.04607212  0.00277696    -0.79970
O140        O  0.55636934  0.09537272  0.00390686    -0.93390
Zr141      Zr  0.59737717  0.44913370  0.99454290     2.64680
O142        O  0.68770817  0.46369478  0.97954409    -0.98350
O143        O  0.61333104  0.39275344  0.00004592    -0.80410
O144        O  0.59208675  0.49553821  0.94533337    -0.83770
O145        O  0.58873325  0.49377809  0.04567206    -2.18470
O146        O  0.39731366  0.04959576  0.07288459    -0.67150
O147        O  0.44530568  0.02643263  0.13577038    -0.51720
C148        C  0.40777223  0.04478306  0.11958915     0.71610
O149        O  0.41454238  0.43398020  0.91008002    -0.60060
O150        O  0.45449053  0.46050596  0.84608515    -0.52040
C151        C  0.41914325  0.44158194  0.86325521     0.73420
O152        O  0.40835774  0.42927630  0.07434188    -0.71460
O153        O  0.44599683  0.45568390  0.13723504    -0.50130
C154        C  0.41166834  0.43671317  0.12093907     0.74800
O155        O  0.40192810  0.04808528  0.90595072    -0.66790
O156        O  0.45620876  0.02688103  0.84494443    -0.53980
C157        C  0.41569969  0.04362393  0.85949165     0.73180
Zr158      Zr  0.43081104  0.03351235  0.99054316     2.77540
O159        O  0.33957127  0.01959311  0.98581769    -0.97540
O160        O  0.41812546  0.09019904  0.98810743    -0.78360
Zr161      Zr  0.44777567  0.44219504  0.99300289     2.70070
O162        O  0.35685139  0.42704056  0.99300464    -0.79600
O163        O  0.47585410  0.38731783  0.99081484    -0.98690
Zr164      Zr  0.51930792  0.49247947  0.89069947     2.21500
Zr165      Zr  0.51065387  0.49019387  0.09580770     2.11130
O166        O  0.43681038  0.48789870  0.04186323    -2.47380
O167        O  0.44160918  0.48803618  0.94186439    -0.79400
O168        O  0.50309796  0.03687905  0.04500883    -0.71590
O169        O  0.52414580  0.44538766  0.94198253    -2.32550
O170        O  0.50922162  0.03825978  0.94235326    -2.28760
O171        O  0.52074045  0.44392723  0.04564094    -0.73350
H172        H  0.61911592  0.49472219  0.06644893     0.78640
H173        H  0.52685850  0.42695850  0.92127462     0.79730
H174        H  0.40478926  0.48717684  0.06164455     0.81960
H175        H  0.50747767  0.05699811  0.92157854     0.79560
H176        H  0.58764469  0.38383231  0.97726635     0.42600
H177        H  0.48059609  0.38130934  0.02665269     0.41570
H178        H  0.33666005  0.44711595  0.99105474     0.41250
H179        H  0.33113695  0.00876693  0.01804558     0.39180
H180        H  0.44202208  0.09791207  0.01373340     0.42310
H181        H  0.53938145  0.10096585  0.97174762     0.37100
H182        H  0.69068108  0.03200910  0.97680256     0.43210
H183        H  0.69632611  0.47707077  0.00812358     0.39630
H184        H  0.32009016  0.03986357  0.98760332     0.44550
H185        H  0.58977744  0.10649254  0.00286112     0.43270
H186        H  0.70889990  0.44419055  0.98396552     0.43410
H187        H  0.44437017  0.37617802  0.98083401     0.43760
C188        C  0.26040994  0.37410662  0.74446977    -0.02300
O189        O  0.92646667  0.04475399  0.61479806    -0.75110
O190        O  0.86299597  0.02215553  0.56913374    -0.54010
C191        C  0.87905742  0.03911636  0.60534836     0.78620
O192        O  0.08626407  0.05361401  0.39367908    -0.59710
O193        O  0.15555412  0.03188494  0.43446110    -0.52740
C194        C  0.13500101  0.04873116  0.39876323     0.70640
O195        O  0.92173452  0.05649020  0.40560413    -0.74260
O196        O  0.86068075  0.02558799  0.44367893    -0.54830
C197        C  0.87561996  0.04649361  0.41102897     0.76640
O198        O  0.09770645  0.04521836  0.60500698    -0.59410
O199        O  0.16477301  0.02681581  0.55638567    -0.52530
C200        C  0.14660679  0.04185036  0.59491414     0.73230
Zr201      Zr  0.01118985  0.03453240  0.57933075     2.54710
O202        O  0.00678068  0.09152690  0.58055868    -0.79970
O203        O  0.01628013  0.03088676  0.67093130    -0.93390
Zr204      Zr  0.00578967  0.04387616  0.43560434     2.64680
O205        O  0.00232240  0.09980177  0.45245993    -0.98350
O206        O  0.99056944  0.04917554  0.34564727    -0.80410
O207        O  0.95471899  0.03964386  0.50996719    -0.83770
O208        O  0.06162453  0.04227901  0.50527580    -2.18470
O209        O  0.10507815  0.42947239  0.58872337    -0.67150
O210        O  0.16655677  0.46047804  0.55155901    -0.51720
C211        C  0.15204880  0.43823609  0.58174654     0.71610
O212        O  0.93104546  0.43828837  0.39702066    -0.60060
O213        O  0.86469930  0.45727218  0.44779203    -0.52040
C214        C  0.88272768  0.44104487  0.41034292     0.73420
O215        O  0.10068694  0.45558965  0.37748762    -0.71460
O216        O  0.16383968  0.46796423  0.43277220    -0.50130
C217        C  0.14831564  0.45766840  0.39058472     0.74800
O218        O  0.93361141  0.42911984  0.59953370    -0.66790
O219        O  0.86632212  0.45721157  0.56417524    -0.53980
C220        C  0.88510190  0.43735614  0.59647527     0.73180
Zr221      Zr  0.01806525  0.44271957  0.56436139     2.77540
O222        O  0.01563134  0.38733666  0.54442842    -0.97540
O223        O  0.03224468  0.43241872  0.65336823    -0.78360
Zr224      Zr  0.01701139  0.45280744  0.42051983     2.70070
O225        O  0.03621850  0.39666769  0.42290299    -0.79600
O226        O  0.00549670  0.44934019  0.32975810    -0.98690
Zr227      Zr  0.90943451  0.49183274  0.50385772     2.21500
Zr228      Zr  0.11620818  0.49632931  0.49709211     2.11130
O229        O  0.07130131  0.44790070  0.49095422    -2.47380
O230        O  0.96419356  0.44582818  0.49383366    -0.79400
O231        O  0.06486215  0.48933755  0.57176729    -0.71590
O232        O  0.96088145  0.49700038  0.42877156    -2.32550
O233        O  0.96461655  0.48796576  0.57508959    -2.28760
O234        O  0.06179857  0.49987847  0.42577218    -0.73350
H235        H  0.08194294  0.06095441  0.50676342     0.78640
H236        H  0.93958505  0.49784086  0.39918406     0.79730
H237        H  0.09554336  0.43030371  0.48721376     0.81960
H238        H  0.94462375  0.48628904  0.60615489     0.79560
H239        H  0.00315294  0.02896367  0.33136870     0.42600
H240        H  0.02202423  0.46820411  0.31520168     0.41570
H241        H  0.00169122  0.38708175  0.42793425     0.41250
H242        H  0.05067868  0.38213685  0.52990300     0.39180
H243        H  0.03904665  0.45320673  0.66756624     0.42310
H244        H  0.98989711  0.01543728  0.68141925     0.37100
H245        H  0.97322428  0.09728507  0.56454662     0.43210
H246        H  0.03761837  0.10476797  0.46392678     0.39630
H247        H  0.01489422  0.37654534  0.57770512     0.44550
H248        H  0.00200449  0.05121761  0.68333413     0.43270
H249        H  0.99948228  0.10995134  0.41881313     0.43410
H250        H  0.02855953  0.43159327  0.31883768     0.43760
C251        C  0.76627848  0.37142719  0.26440255    -0.02300
C252        C  0.27414865  0.11807429  0.26540540    -0.02300
C253        C  0.76399319  0.10844312  0.24579921    -0.02300
C254        C  0.25622393  0.37270981  0.25475132    -0.02300
C255        C  0.26704615  0.11808982  0.73058454    -0.02300
C256        C  0.76496894  0.35493464  0.73551644    -0.02300
C257        C  0.26212026  0.07281802  0.66845641    -0.05590
C258        C  0.23486333  0.09179031  0.70471386     0.00330
C259        C  0.18063125  0.08486462  0.71285907    -0.08240
C260        C  0.15506319  0.07070981  0.67377015    -0.05620
C261        C  0.18106520  0.05665356  0.63224211     0.00320
C262        C  0.23638815  0.05612987  0.63108084    -0.08150
C263        C  0.26846469  0.03973168  0.58991565     0.62230
H264        H  0.30403069  0.07382876  0.66619557     0.12920
H265        H  0.11296464  0.06960016  0.67781228     0.12940
C266        C  0.14563314  0.08855051  0.76023729     0.62470
F267        F  0.32163964  0.04223982  0.59672617    -0.22700
F268        F  0.25684779  0.05298737  0.54348159    -0.20030
F269        F  0.25759546  0.50823269  0.58990553    -0.19710
F270        F  0.11038687  0.11329332  0.75375746    -0.19760
F271        F  0.17161769  0.09192708  0.80414846    -0.20080
F272        F  0.11707471  0.06169653  0.76767698    -0.22760
C273        C  0.18312273  0.09764651  0.28802583    -0.05590
C274        C  0.23743744  0.09193978  0.28916629     0.00330
C275        C  0.25203597  0.06181546  0.31196009    -0.08240
C276        C  0.21691104  0.04866619  0.34776013    -0.05620
C277        C  0.16809393  0.06263913  0.35854507     0.00320
C278        C  0.15031862  0.08780543  0.32715556    -0.08150
C279        C  0.10025374  0.10715544  0.33692476     0.62230
H280        H  0.16559703  0.11186241  0.25904271     0.12920
H281        H  0.22718117  0.02731206  0.36806630     0.12940
C282        C  0.29946605  0.04075884  0.29765190     0.62470
F283        F  0.09861774  0.13467056  0.30879535    -0.22700
F284        F  0.09698186  0.11539440  0.38717279    -0.20030
F285        F  0.05735266  0.09060802  0.32402563    -0.19710
F286        F  0.34580717  0.05526494  0.30413155    -0.19760
F287        F  0.29583654  0.03108975  0.24855023    -0.20080
F288        F  0.30213254  0.01362102  0.32681481    -0.22760
C289        C  0.80032600  0.41398090  0.62045811    -0.05590
C290        C  0.84979960  0.42288701  0.63417311     0.00330
C291        C  0.86795417  0.41374160  0.68172546    -0.08240
C292        C  0.84272419  0.39006248  0.70763217    -0.05620
C293        C  0.79106665  0.38079299  0.69814575     0.00320
C294        C  0.76889908  0.39467482  0.65171761    -0.08150
C295        C  0.71499943  0.39031081  0.62836032     0.62230
H296        H  0.78626217  0.42183391  0.58396891     0.12920
H297        H  0.86743687  0.37916209  0.73469316     0.12940
C298        C  0.91506656  0.42708942  0.70694137     0.62470
F299        F  0.69181257  0.41951471  0.61993168    -0.22700
F300        F  0.67984637  0.37326255  0.65668057    -0.20030
F301        F  0.72164514  0.37609829  0.58201283    -0.19710
F302        F  0.92967159  0.45538580  0.68596450    -0.19760
F303        F  0.95624474  0.40552320  0.70420254    -0.20080
F304        F  0.90308258  0.43245995  0.75731701    -0.22760
C305        C  0.20762035  0.42382342  0.27396117    -0.05590
C306        C  0.22582309  0.39437730  0.29315003     0.00330
C307        C  0.22121651  0.38950481  0.34742420    -0.08240
C308        C  0.20778919  0.41509666  0.37752595    -0.05620
C309        C  0.18625791  0.44249007  0.35719333     0.00320
C310        C  0.18596124  0.44724520  0.30463716    -0.08150
C311        C  0.16204570  0.47597284  0.27880995     0.62230
H312        H  0.20791139  0.42842900  0.23383587     0.12920
H313        H  0.20579933  0.41173267  0.41824805     0.12940
C314        C  0.22518627  0.35884334  0.37810688     0.62470
F315        F  0.19899611  0.48929039  0.24694428    -0.22700
F316        F  0.14448000  0.49853744  0.31237042    -0.20030
F317        F  0.12032149  0.46707395  0.25052075    -0.19710
F318        F  0.26603280  0.35979374  0.41111964    -0.19760
F319        F  0.23012987  0.33246859  0.34894553    -0.20080
F320        F  0.18035480  0.35569944  0.40781572    -0.22760
C321        C  0.86607262  0.39321190  0.36581664    -0.05590
C322        C  0.84792213  0.42318096  0.37891752     0.00330
C323        C  0.80462453  0.43666080  0.35426818    -0.08240
C324        C  0.78574403  0.42134521  0.31206985    -0.05620
C325        C  0.79922378  0.38950505  0.30207216     0.00320
C326        C  0.84113208  0.37497703  0.33082058    -0.08150
C327        C  0.86331792  0.34107248  0.32888212     0.62230
H328        H  0.89975136  0.38326470  0.38513773     0.12920
H329        H  0.75674481  0.43356279  0.28992435     0.12940
C330        C  0.77431580  0.46446249  0.37616181     0.62470
F331        F  0.91409438  0.34132382  0.31003041    -0.22700
F332        F  0.83594891  0.32046574  0.30091720    -0.20030
F333        F  0.86488484  0.32856914  0.37727773    -0.19710
F334        F  0.80647135  0.48903908  0.38286790    -0.19760
F335        F  0.75311696  0.45591208  0.42257662    -0.20080
F336        F  0.73400467  0.47469382  0.34565829    -0.22760
C337        C  0.83756599  0.04223151  0.32783551    -0.05590
C338        C  0.84098184  0.05922178  0.37235318     0.00330
C339        C  0.83023473  0.09140403  0.37064363    -0.08240
C340        C  0.81594192  0.10500782  0.32491215    -0.05620
C341        C  0.79840960  0.08757667  0.28317292     0.00320
C342        C  0.81387085  0.05452285  0.28387532    -0.08150
C343        C  0.80982990  0.02938574  0.24372118     0.62230
H344        H  0.85519911  0.01888006  0.32689651     0.12920
H345        H  0.81113713  0.12996166  0.32510289     0.12940
C346        C  0.83119759  0.11114283  0.41786701     0.62470
F347        F  0.85935672  0.01741572  0.23194911    -0.22700
F348        F  0.78754090  0.03884456  0.19967800    -0.20030
F349        F  0.78067187  0.00508022  0.26316884    -0.19710
F350        F  0.88061979  0.11085147  0.43781620    -0.19760
F351        F  0.79636618  0.09887277  0.45276292    -0.20080
F352        F  0.81617302  0.14207264  0.40887078    -0.22760
C353        C  0.19904378  0.37796212  0.67224136    -0.05590
C354        C  0.22779003  0.39546342  0.70694939     0.00330
C355        C  0.23137816  0.42875808  0.69669097    -0.08240
C356        C  0.21475445  0.44052275  0.64947528    -0.05620
C357        C  0.18939566  0.42207407  0.61504705     0.00320
C358        C  0.18341995  0.38997640  0.62571502    -0.08150
C359        C  0.16119228  0.36727068  0.58868874     0.62230
H360        H  0.19464092  0.35303928  0.67874886     0.12920
H361        H  0.21567080  0.46549220  0.64191700     0.12940
C362        C  0.24308198  0.45446751  0.73414856     0.62470
F363        F  0.19439129  0.34129596  0.58417662    -0.22700
F364        F  0.15566920  0.38028119  0.54096483    -0.20030
F365        F  0.11306609  0.35760527  0.60658608    -0.19710
F366        F  0.29171628  0.46642418  0.72331314    -0.19760
F367        F  0.24016082  0.44505902  0.78380974    -0.20080
F368        F  0.20641214  0.47879128  0.72972102    -0.22760
C369        C  0.65148703  0.09278769  0.14863670    -0.05590
C370        C  0.63573750  0.06273913  0.16292485     0.00330
C371        C  0.65955267  0.04866408  0.20517577    -0.08240
C372        C  0.70028592  0.06435072  0.22867188    -0.05620
C373        C  0.72209720  0.09286902  0.21120158     0.00320
C374        C  0.69412849  0.10803872  0.16982781    -0.08150
C375        C  0.70442088  0.13913058  0.14213669     0.62230
H376        H  0.63098459  0.10423652  0.11776289     0.12920
H377        H  0.71629789  0.05328259  0.26126630     0.12940
C378        C  0.64300340  0.01692810  0.22518382     0.62470
F379        F  0.70640113  0.13406468  0.09060168    -0.22700
F380        F  0.74969132  0.15362739  0.15247347    -0.20030
F381        F  0.66320961  0.15988092  0.15242997    -0.19710
F382        F  0.65194414  0.49477095  0.18835693    -0.19760
F383        F  0.59049447  0.01819661  0.23858953    -0.20080
F384        F  0.67038379  0.00741684  0.26737082    -0.22760
C385        C  0.39937543  0.07881472  0.19445741    -0.05590
C386        C  0.37454147  0.06262922  0.15699179     0.00330
C387        C  0.31941545  0.06469640  0.15508063    -0.08240
C388        C  0.29148991  0.08276470  0.19105259    -0.05620
C389        C  0.31521877  0.09964734  0.22984304     0.00320
C390        C  0.37216919  0.09662504  0.23194929    -0.08150
C391        C  0.40816648  0.10909736  0.27230023     0.62230
H392        H  0.44170615  0.07747368  0.19365318     0.12920
H393        H  0.24929994  0.08398623  0.18907764     0.12940
C394        C  0.28931507  0.04778422  0.11553029     0.62470
F395        F  0.45417045  0.09131052  0.27508126    -0.22700
F396        F  0.38687616  0.10783921  0.32021619    -0.20030
F397        F  0.42221156  0.13919648  0.25998978    -0.19710
F398        F  0.30667792  0.01689134  0.11258673    -0.19760
F399        F  0.29630574  0.06267645  0.06945195    -0.20080
F400        F  0.23618099  0.04782000  0.12649765    -0.22760
C401        C  0.32374530  0.41642924  0.23599693    -0.05590
C402        C  0.28787399  0.39524706  0.21607762     0.00330
C403        C  0.28389878  0.39802133  0.16247102    -0.08240
C404        C  0.32747604  0.40858129  0.13393863    -0.05620
C405        C  0.37014662  0.42337819  0.15593841     0.00320
C406        C  0.36649681  0.42864599  0.20854039    -0.08150
C407        C  0.40623003  0.44726603  0.23659818     0.62230
H408        H  0.31593010  0.42594006  0.27255586     0.12920
H409        H  0.32501523  0.40807958  0.09322504     0.12940
C410        C  0.23304888  0.39826009  0.13370935     0.62470
F411        F  0.39620199  0.44729059  0.28815008    -0.22700
F412        F  0.40498953  0.47807920  0.21982961    -0.20030
F413        F  0.45573279  0.43412336  0.22901021    -0.19710
F414        F  0.18916778  0.39493576  0.16406263    -0.19760
F415        F  0.23511711  0.37509634  0.09788149    -0.20080
F416        F  0.22702686  0.42680696  0.10883999    -0.22760
C417        C  0.69587560  0.40003697  0.75298871    -0.05590
C418        C  0.72456677  0.37367046  0.77332406     0.00330
C419        C  0.71514984  0.36890452  0.82770842    -0.08240
C420        C  0.68173766  0.39044560  0.85408841    -0.05620
C421        C  0.65223250  0.41493716  0.83151458     0.00320
C422        C  0.65835360  0.41896239  0.77912687    -0.08150
C423        C  0.62634117  0.44351140  0.75025148     0.62230
H424        H  0.70385132  0.40802214  0.71613791     0.12920
H425        H  0.67737025  0.38712176  0.89454066     0.12940
C426        C  0.73495119  0.34319333  0.86481537     0.62470
F427        F  0.63711497  0.44313122  0.69894435    -0.22700
F428        F  0.63659879  0.47310743  0.76736713    -0.20030
F429        F  0.57381840  0.43768473  0.75683616    -0.19710
F430        F  0.76644956  0.35679805  0.89971299    -0.19760
F431        F  0.76195970  0.31786531  0.84521742    -0.20080
F432        F  0.69252814  0.33094252  0.89094088    -0.22760
C433        C  0.40098422  0.07900797  0.78423322    -0.05590
C434        C  0.38063225  0.05869447  0.82100176     0.00330
C435        C  0.32613946  0.05471208  0.82257777    -0.08240
C436        C  0.29398323  0.07442235  0.79299871    -0.05620
C437        C  0.31232098  0.09760204  0.75849242     0.00320
C438        C  0.36893726  0.09640624  0.74982137    -0.08150
C439        C  0.39946287  0.11041181  0.70503968     0.62230
H440        H  0.44309378  0.08098173  0.78221866     0.12920
H441        H  0.25281798  0.07130579  0.79712887     0.12940
C442        C  0.29986842  0.03046568  0.85621340     0.62470
F443        F  0.44551066  0.09338168  0.69590408    -0.22700
F444        F  0.41332251  0.14060627  0.71521827    -0.20030
F445        F  0.37282127  0.10947732  0.66070526    -0.19710
F446        F  0.28328201  0.04443913  0.90060230    -0.19760
F447        F  0.33302172  0.00523792  0.86690759    -0.20080
F448        F  0.25679234  0.01880436  0.83282629    -0.22760
C449        C  0.63816470  0.41686575  0.21040243    -0.05590
C450        C  0.65552892  0.42484793  0.16168069     0.00330
C451        C  0.70938611  0.41928471  0.14983583    -0.08240
C452        C  0.74118118  0.40286222  0.18430466    -0.05620
C453        C  0.72483028  0.39306207  0.23326246     0.00320
C454        C  0.67141846  0.40315600  0.24782029    -0.08150
C455        C  0.64787448  0.40386086  0.30171137     0.62230
H456        H  0.59760638  0.42256054  0.21919747     0.12920
H457        H  0.78033809  0.39755356  0.17141493     0.12940
C458        C  0.73500484  0.43087130  0.10103150     0.62470
F459        F  0.59628133  0.41454915  0.30282564    -0.22700
F460        F  0.67436710  0.42453022  0.33023313    -0.20030
F461        F  0.64739772  0.37503261  0.32508353    -0.19710
F462        F  0.72065487  0.46190263  0.09269785    -0.19760
F463        F  0.72019348  0.41258856  0.06147905    -0.20080
F464        F  0.78907533  0.42933375  0.10242619    -0.22760
C465        C  0.33477442  0.41420937  0.85591888    -0.05590
C466        C  0.37814782  0.42720535  0.83035551     0.00330
C467        C  0.37943104  0.42537337  0.77715712    -0.08240
C468        C  0.34003216  0.40871492  0.75283534    -0.05620
C469        C  0.29746341  0.39389369  0.77847182     0.00320
C470        C  0.29428198  0.39837598  0.83247047    -0.08150
C471        C  0.24955774  0.38836881  0.86782411     0.62230
H472        H  0.33250510  0.41648337  0.89632032     0.12920
H473        H  0.34212213  0.40756745  0.71224458     0.12940
C474        C  0.42197671  0.44072001  0.74575263     0.62470
F475        F  0.25154998  0.40185240  0.91496675    -0.22700
F476        F  0.25167082  0.35647809  0.87591033    -0.20030
F477        F  0.20219265  0.39789245  0.84908734    -0.19710
F478        F  0.47007612  0.42820705  0.75915728    -0.19760
F479        F  0.42036912  0.47266832  0.75381895    -0.20080
F480        F  0.41631362  0.43608565  0.69460053    -0.22760
C481        C  0.80070733  0.10587275  0.65623681    -0.05590
C482        C  0.79864576  0.09999960  0.70916662     0.00330
C483        C  0.82097562  0.07004698  0.72543092    -0.08240
C484        C  0.84086202  0.04900004  0.68864686    -0.05620
C485        C  0.84210951  0.05648117  0.63714145     0.00320
C486        C  0.82301353  0.08573808  0.62079751    -0.08150
C487        C  0.82664168  0.09824452  0.56671504     0.62230
H488        H  0.78235079  0.12563885  0.63908469     0.12920
H489        H  0.85830576  0.02671792  0.70051715     0.12940
C490        C  0.82513654  0.05731202  0.77943651     0.62470
F491        F  0.77704077  0.10685440  0.55104044    -0.22700
F492        F  0.84789782  0.07717009  0.53256988    -0.20030
F493        F  0.85725330  0.12444208  0.56543734    -0.19710
F494        F  0.81421573  0.07871428  0.81664570    -0.19760
F495        F  0.87566027  0.04613811  0.78709753    -0.20080
F496        F  0.79159174  0.03266693  0.78592571    -0.22760
C497        C  0.71832336  0.10859875  0.82733656    -0.05590
C498        C  0.72734217  0.10226184  0.77582754     0.00330
C499        C  0.69423115  0.07840796  0.75484681    -0.08240
C500        C  0.66007480  0.06152044  0.78747173    -0.05620
C501        C  0.64933120  0.07029638  0.83715802     0.00320
C502        C  0.67632188  0.09649596  0.85560102    -0.08150
C503        C  0.65932736  0.11410842  0.90301700     0.62230
H504        H  0.74248422  0.12483894  0.84600481     0.12920
H505        H  0.63985411  0.04158222  0.77342274     0.12940
C506        C  0.69213604  0.06849769  0.69957162     0.62470
F507        F  0.67894352  0.14399900  0.90347092    -0.22700
F508        F  0.67711063  0.09847670  0.94541881    -0.20030
F509        F  0.60547017  0.11747615  0.90505651    -0.19710
F510        F  0.72784348  0.04434885  0.69052999    -0.19760
F511        F  0.70039614  0.09256050  0.66582574    -0.20080
F512        F  0.64321946  0.05756790  0.68871115    -0.22760
C513        C  0.16115315  0.17787531  0.21740947    -0.05590
C514        C  0.16907254  0.17711235  0.16504998     0.00330
C515        C  0.21847196  0.16445206  0.14731524    -0.08240
C516        C  0.25140275  0.14798363  0.18093323    -0.05620
C517        C  0.23946678  0.14346029  0.23265380     0.00320
C518        C  0.19795943  0.16455362  0.25168842    -0.08150
C519        C  0.19328304  0.17624283  0.30586508     0.62230
H520        H  0.12672941  0.19049194  0.23140772     0.12920
H521        H  0.28842837  0.13932451  0.16627948     0.12940
C522        C  0.23941571  0.16966148  0.09388008     0.62470
F523        F  0.23370395  0.19591595  0.31484126    -0.22700
F524        F  0.19378096  0.15218667  0.34053523    -0.20030
F525        F  0.14746869  0.19350177  0.31464551    -0.19710
F526        F  0.23486282  0.20118382  0.08213844    -0.19760
F527        F  0.21241719  0.15196196  0.06039866    -0.20080
F528        F  0.29181454  0.16118941  0.08820676    -0.22760
C529        C  0.13252314  0.32555361  0.20416879    -0.05590
C530        C  0.15527946  0.31105560  0.16237222     0.00330
C531        C  0.20945095  0.31425724  0.15376047    -0.08240
C532        C  0.23757923  0.33347892  0.18562321    -0.05620
C533        C  0.21636454  0.34976867  0.22770947     0.00320
C534        C  0.15995239  0.34520669  0.23683804    -0.08150
C535        C  0.12425090  0.35971430  0.27812309     0.62230
H536        H  0.09104163  0.32215540  0.20915568     0.12920
H537        H  0.27647906  0.33833088  0.17358361     0.12940
C538        C  0.23800537  0.29906105  0.10917973     0.62470
F539        F  0.07270047  0.35087860  0.27557099    -0.22700
F540        F  0.12213083  0.39179794  0.27485076    -0.20030
F541        F  0.13973559  0.34962876  0.32448569    -0.19710
F542        F  0.22731692  0.31612318  0.06598615    -0.19760
F543        F  0.22253431  0.26852909  0.10386755    -0.20080
F544        F  0.29164412  0.29831165  0.11465439    -0.22760
C545        C  0.89590413  0.34080287  0.19178300    -0.05590
C546        C  0.87939004  0.31339821  0.16923371     0.00330
C547        C  0.82482738  0.30810340  0.17008381    -0.08240
C548        C  0.79040733  0.32850770  0.19705527    -0.05620
C549        C  0.80667158  0.35440720  0.22498543     0.00320
C550        C  0.86036651  0.36292787  0.21441048    -0.08150
C551        C  0.88187783  0.39585586  0.21786269     0.62230
H552        H  0.93652208  0.34687582  0.18632337     0.12920
H553        H  0.74986970  0.32391953  0.19395648     0.12940
C554        C  0.79944806  0.28170677  0.14247991     0.62470
F555        F  0.90822310  0.40315433  0.17323778    -0.22700
F556        F  0.91697374  0.39706138  0.25658561    -0.20030
F557        F  0.84393591  0.41900060  0.22418663    -0.19710
F558        F  0.83480601  0.26055370  0.12133197    -0.19760
F559        F  0.76884467  0.29435970  0.10456215    -0.20080
F560        F  0.76779085  0.26532653  0.17592393    -0.22760
C561        C  0.23520794  0.32312096  0.79409425    -0.05590
C562        C  0.21796144  0.35260316  0.77444314     0.00330
C563        C  0.16111996  0.35846935  0.78062897    -0.08240
C564        C  0.12932443  0.33507396  0.80312132    -0.05620
C565        C  0.14968262  0.30841608  0.82696427     0.00320
C566        C  0.20375278  0.30207007  0.82182370    -0.08150
C567        C  0.23112885  0.27366066  0.84559079     0.62230
H568        H  0.27481074  0.31627033  0.79120232     0.12920
H569        H  0.08738029  0.33902943  0.80677011     0.12940
C570        C  0.12892910  0.38864785  0.76943295     0.62470
F571        F  0.26042491  0.25792451  0.80901230    -0.22700
F572        F  0.19700894  0.25264391  0.86739905    -0.20030
F573        F  0.26435874  0.28359636  0.88220283    -0.19710
F574        F  0.10440424  0.38611668  0.72379187    -0.19760
F575        F  0.15693887  0.41544042  0.76971052    -0.20080
F576        F  0.09024081  0.39329267  0.80622719    -0.22760
C577        C  0.86825006  0.29496743  0.79984884    -0.05590
C578        C  0.88798188  0.31369134  0.83676328     0.00330
C579        C  0.87195071  0.34549440  0.83835598    -0.08240
C580        C  0.83215655  0.35626180  0.80609525    -0.05620
C581        C  0.81066867  0.33785553  0.76725225     0.00320
C582        C  0.83411643  0.30636321  0.76224029    -0.08150
C583        C  0.83056662  0.28412386  0.71785125     0.62230
H584        H  0.88113405  0.27062008  0.80076955     0.12920
H585        H  0.81815975  0.38026934  0.81004760     0.12940
C586        C  0.89686759  0.36831390  0.87342000     0.62470
F587        F  0.86187268  0.25740298  0.72347761    -0.22700
F588        F  0.84961660  0.29833273  0.67459883    -0.20030
F589        F  0.78052184  0.27375692  0.71270584    -0.19710
F590        F  0.95069768  0.36435866  0.87101357    -0.19760
F591        F  0.87918001  0.36333083  0.92238678    -0.20080
F592        F  0.88490155  0.39911533  0.86021203    -0.22760
C593        C  0.23717029  0.13685619  0.81902197    -0.05590
C594        C  0.22960814  0.13858983  0.76651966     0.00330
C595        C  0.18693620  0.15944214  0.75030712    -0.08240
C596        C  0.15425553  0.17445660  0.78723273    -0.05620
C597        C  0.15800357  0.16819137  0.83892301     0.00320
C598        C  0.19914609  0.14712877  0.85454920    -0.08150
C599        C  0.20179962  0.13226049  0.90699094     0.62230
H600        H  0.27147699  0.12517129  0.83344364     0.12920
H601        H  0.12427788  0.19122050  0.77573814     0.12940
C602        C  0.17505009  0.16841580  0.69551895     0.62470
F603        F  0.23728494  0.10721549  0.90890753    -0.22700
F604        F  0.15358138  0.12068938  0.92085511    -0.20030
F605        F  0.21719812  0.15384662  0.94128233    -0.19710
F606        F  0.12727370  0.18414835  0.69126466    -0.19760
F607        F  0.17229692  0.14251275  0.66562241    -0.20080
F608        F  0.21230145  0.18839317  0.67650647    -0.22760
C609        C  0.88098345  0.13775715  0.15405883    -0.05590
C610        C  0.89135300  0.16751773  0.17176024     0.00330
C611        C  0.86392565  0.17737457  0.21556655    -0.08240
C612        C  0.82476009  0.15786705  0.23726451    -0.05620
C613        C  0.80902321  0.12855269  0.21670742     0.00320
C614        C  0.84039595  0.11867623  0.17288074    -0.08150
C615        C  0.83651298  0.08834934  0.14376459     0.62230
H616        H  0.90580901  0.12959674  0.12307748     0.12920
H617        H  0.80637820  0.16645766  0.27120423     0.12940
C618        C  0.87641668  0.20817656  0.23977758     0.62470
F619        F  0.85828879  0.09058722  0.09552911    -0.22700
F620        F  0.78601495  0.08013481  0.13616824    -0.20030
F621        F  0.86468513  0.06522251  0.16858456    -0.19710
F622        F  0.86878511  0.23252972  0.20579765    -0.19760
F623        F  0.92800781  0.20734410  0.25421233    -0.20080
F624        F  0.84530414  0.21417983  0.28210209    -0.22760
C625        C  0.83180904  0.18625058  0.83562283    -0.05590
C626        C  0.88288912  0.17425355  0.84002304     0.00330
C627        C  0.89660757  0.14644327  0.81466857    -0.08240
C628        C  0.85956443  0.13242182  0.78384398    -0.05620
C629        C  0.80616132  0.14292577  0.77993069     0.00320
C630        C  0.79282013  0.17156513  0.80731750    -0.08150
C631        C  0.74012228  0.18951446  0.80620013     0.62230
H632        H  0.82267595  0.20786575  0.85523787     0.12920
H633        H  0.87381101  0.11282110  0.76231670     0.12940
C634        C  0.95023154  0.13106948  0.82161748     0.62470
F635        F  0.73366766  0.20916073  0.84715730    -0.22700
F636        F  0.69821811  0.17019307  0.80839480    -0.20030
F637        F  0.73751109  0.20808349  0.76329990    -0.19710
F638        F  0.95724835  0.12421015  0.87220299    -0.19760
F639        F  0.98852471  0.15118719  0.80498934    -0.20080
F640        F  0.95632087  0.10340493  0.79524037    -0.22760
C641        C  0.76010466  0.32562380  0.65150616    -0.05590
C642        C  0.73728882  0.33061340  0.70084119     0.00330
C643        C  0.69003792  0.31361711  0.71203575    -0.08240
C644        C  0.66974993  0.29505043  0.67413805    -0.05620
C645        C  0.68974861  0.29417971  0.62476262     0.00320
C646        C  0.73704180  0.30847408  0.61339843    -0.08150
C647        C  0.76204638  0.30675839  0.56094914     0.62230
H648        H  0.79632667  0.33648428  0.64128539     0.12920
H649        H  0.63500168  0.28179610  0.68169723     0.12940
C650        C  0.65909453  0.31292967  0.76184109     0.62470
F651        F  0.80772807  0.32331370  0.55720987    -0.22700
F652        F  0.72793209  0.31912299  0.52566702    -0.20030
F653        F  0.77405579  0.27585428  0.54957289    -0.19710
F654        F  0.63787112  0.34200766  0.77321556    -0.19760
F655        F  0.69053447  0.30145326  0.79902580    -0.20080
F656        F  0.61716626  0.29310722  0.76147226    -0.22760
C657        C  0.34012520  0.18854966  0.66639520    -0.05590
C658        C  0.33404998  0.18242728  0.61529097     0.00330
C659        C  0.30168514  0.15845877  0.60103512    -0.08240
C660        C  0.27876057  0.13976268  0.63882865    -0.05620
C661        C  0.28942166  0.14258330  0.69128496     0.00320
C662        C  0.31815343  0.16972997  0.70510234    -0.08150
C663        C  0.32596919  0.18051643  0.75921063     0.62230
H664        H  0.36445786  0.20793717  0.67556239     0.12920
H665        H  0.25202404  0.12295987  0.62598271     0.12940
C666        C  0.29345374  0.15190423  0.54576542     0.62470
F667        F  0.36409293  0.20280690  0.76159216    -0.22700
F668        F  0.34159692  0.15617963  0.79042884    -0.20030
F669        F  0.28025408  0.19422128  0.77796160    -0.19710
F670        F  0.34085842  0.14376069  0.52281671    -0.19760
F671        F  0.27281212  0.17844200  0.52233603    -0.20080
F672        F  0.25948523  0.12769347  0.53924292    -0.22760
C673        C  0.69077465  0.14153857  0.36715855    -0.05590
C674        C  0.68056085  0.17235547  0.35273559     0.00330
C675        C  0.68909532  0.18100086  0.30165510    -0.08240
C676        C  0.71198654  0.15935994  0.26803206    -0.05620
C677        C  0.72515973  0.12839830  0.28211453     0.00320
C678        C  0.70449431  0.11842730  0.33146880    -0.08150
C679        C  0.68622905  0.08548018  0.34596093     0.62230
H680        H  0.68003028  0.13507433  0.40557290     0.12920
H681        H  0.72149029  0.16730724  0.23073127     0.12940
C682        C  0.67348331  0.21299046  0.28240434     0.62470
F683        F  0.66448789  0.08414861  0.39424815    -0.22700
F684        F  0.72577737  0.06318236  0.34546432    -0.20030
F685        F  0.64705095  0.07732559  0.31417511    -0.19710
F686        F  0.69278640  0.23493011  0.31404005    -0.19760
F687        F  0.61970068  0.21512098  0.28155827    -0.20080
F688        F  0.69278539  0.21900418  0.23414291    -0.22760
C689        C  0.32846653  0.37053596  0.32198360    -0.05590
C690        C  0.30142628  0.35436771  0.28434131     0.00330
C691        C  0.31466649  0.32166329  0.28122391    -0.08240
C692        C  0.33041944  0.30614867  0.32588352    -0.05620
C693        C  0.35500059  0.32269262  0.36343183     0.00320
C694        C  0.35830320  0.35542894  0.35871515    -0.08150
C695        C  0.38868181  0.37473420  0.39539405     0.62230
H696        H  0.32111015  0.39477789  0.32848391     0.12920
H697        H  0.33411203  0.28087658  0.32634010     0.12940
C698        C  0.34145382  0.30809578  0.23423191     0.62470
F699        F  0.37720580  0.40651035  0.39097201    -0.22700
F700        F  0.44154696  0.37040860  0.38585823    -0.20030
F701        F  0.37703301  0.36562278  0.44441449    -0.19710
F702        F  0.35707746  0.33152426  0.20112295    -0.19760
F703        F  0.30874790  0.28771385  0.21140902    -0.20080
F704        F  0.38673811  0.29130045  0.24618297    -0.22760
C705        C  0.69762824  0.32911675  0.27271659    -0.05590
C706        C  0.73573929  0.34636133  0.29691631     0.00330
C707        C  0.74250587  0.33847605  0.34996948    -0.08240
C708        C  0.73064330  0.30824174  0.36598243    -0.05620
C709        C  0.68615426  0.29556940  0.34660222     0.00320
C710        C  0.67015170  0.30538565  0.29753995    -0.08150
C711        C  0.62406314  0.29303798  0.26954320     0.62230
H712        H  0.68389847  0.33687051  0.23622573     0.12920
H713        H  0.74183713  0.30104864  0.40379189     0.12940
C714        C  0.74062778  0.36086062  0.39486413     0.62470
F715        F  0.64189953  0.28009084  0.22461593    -0.22700
F716        F  0.58965075  0.31760673  0.25859587    -0.20030
F717        F  0.59707215  0.27058190  0.29615686    -0.19710
F718        F  0.73171090  0.39142945  0.38192928    -0.19760
F719        F  0.78592789  0.35804353  0.42200774    -0.20080
F720        F  0.69949451  0.35336600  0.42737932    -0.22760
C721        C  0.67992675  0.14732147  0.71431047    -0.05590
C722        C  0.73483559  0.14887555  0.71193849     0.00330
C723        C  0.75487955  0.17212229  0.67659313    -0.08240
C724        C  0.72048358  0.18642032  0.64133404    -0.05620
C725        C  0.66877827  0.17703299  0.63675568     0.00320
C726        C  0.64857429  0.15623897  0.67430694    -0.08150
C727        C  0.59493165  0.14177620  0.67351606     0.62230
H728        H  0.66032101  0.13638174  0.74585850     0.12920
H729        H  0.73529177  0.20377801  0.61485364     0.12940
C730        C  0.81158994  0.18135388  0.66922292     0.62470
F731        F  0.59044438  0.11658393  0.70666538    -0.22700
F732        F  0.58533081  0.13053767  0.62611517    -0.20030
F733        F  0.55778467  0.16389985  0.68795758    -0.19710
F734        F  0.82545841  0.18051379  0.61847363    -0.19760
F735        F  0.84713424  0.16244596  0.69378240    -0.20080
F736        F  0.81629606  0.21156638  0.68548473    -0.22760
C737        C  0.35646890  0.30810794  0.68299388    -0.05590
C738        C  0.35007286  0.31444117  0.63140198     0.00330
C739        C  0.32486105  0.34254005  0.61732875    -0.08240
C740        C  0.30430151  0.36203382  0.65529828    -0.05620
C741        C  0.29967944  0.35330303  0.70774904     0.00320
C742        C  0.33661290  0.32840465  0.72116380    -0.08150
C743        C  0.36642930  0.32453114  0.77033184     0.62230
H744        H  0.38267354  0.28877272  0.69334886     0.12920
H745        H  0.29306297  0.38530073  0.64295867     0.12940
C746        C  0.32323544  0.35312181  0.56237176     0.62470
F747        F  0.41856093  0.33052614  0.76055082    -0.22700
F748        F  0.36317261  0.29394064  0.78789020    -0.20030
F749        F  0.34955031  0.34390069  0.80849027    -0.19710
F750        F  0.29901527  0.33089495  0.53427106    -0.19760
F751        F  0.37363484  0.35684911  0.54398634    -0.20080
F752        F  0.29590747  0.38128543  0.55610824    -0.22760
C753        C  0.32697245  0.16484861  0.28126041    -0.05590
C754        C  0.30080829  0.13936630  0.30436056     0.00330
C755        C  0.29817671  0.13883159  0.35925223    -0.08240
C756        C  0.31527182  0.16505819  0.38511130    -0.05620
C757        C  0.34226383  0.18881455  0.36105472     0.00320
C758        C  0.34799283  0.18908820  0.30817762    -0.08150
C759        C  0.37478293  0.21468594  0.27792791     0.62230
H760        H  0.33163688  0.16585697  0.24055759     0.12920
H761        H  0.31287240  0.16586703  0.42589227     0.12940
C762        C  0.28344556  0.11138721  0.39349736     0.62470
F763        F  0.33922784  0.22837820  0.24531012    -0.22700
F764        F  0.41598426  0.20194462  0.24980138    -0.20030
F765        F  0.39380897  0.23781392  0.30771004    -0.19710
F766        F  0.31168632  0.08487742  0.38037577    -0.19760
F767        F  0.23075186  0.10701907  0.39291828    -0.20080
F768        F  0.29505290  0.11605753  0.44342131    -0.22760
O769        O  0.42701554  0.69654576  0.38129515    -0.75110
O770        O  0.36360031  0.72093454  0.42992195    -0.54010
C771        C  0.37957654  0.70401683  0.39240455     0.78620
O772        O  0.58667879  0.68827427  0.60208549    -0.59710
O773        O  0.65725590  0.70360551  0.55576185    -0.52740
C774        C  0.63598263  0.69039032  0.59516096     0.70640
O775        O  0.41898072  0.68531551  0.58591443    -0.74260
O776        O  0.35863905  0.71778469  0.54828867    -0.54830
C777        C  0.37235477  0.69604719  0.57998640     0.76640
O778        O  0.59693900  0.69017713  0.37490110    -0.59410
O779        O  0.66227165  0.70276629  0.42753987    -0.52530
C780        C  0.64506233  0.69048797  0.38695067     0.73230
Zr781      Zr  0.51259061  0.70241108  0.41287837     2.54710
O782        O  0.50864919  0.64565221  0.42055258    -0.79970
O783        O  0.51635470  0.70014653  0.32111434    -0.93390
Zr784      Zr  0.50663585  0.69534395  0.55743119     2.64680
O785        O  0.51036422  0.63923985  0.54189859    -0.98350
O786        O  0.48037871  0.68812898  0.64530030    -0.80410
O787        O  0.45601099  0.70107815  0.48475700    -0.83770
O788        O  0.56305144  0.69359656  0.48539494    -2.18470
O789        O  0.60241577  0.79459534  0.38048412    -0.67150
O790        O  0.66499714  0.76599474  0.42179406    -0.51720
C791        C  0.64894362  0.78366194  0.38486634     0.71610
O792        O  0.43437381  0.80099124  0.60482885    -0.60060
O793        O  0.36811710  0.78351520  0.55706723    -0.52040
C794        C  0.38592116  0.79814474  0.59530777     0.73420
O795        O  0.60571312  0.79055586  0.59619735    -0.71460
O796        O  0.66982189  0.76656484  0.54864853    -0.50130
C797        C  0.65362375  0.78294427  0.58665912     0.74800
O798        O  0.43699940  0.80972442  0.39175185    -0.66790
O799        O  0.36814803  0.78717622  0.43267548    -0.53980
C800        C  0.38824215  0.80540397  0.39882201     0.73180
Zr801      Zr  0.52053937  0.79445829  0.42446277     2.77540
O802        O  0.53627706  0.84829575  0.44833268    -0.97540
O803        O  0.51646946  0.81630507  0.33938413    -0.78360
Zr804      Zr  0.51804368  0.78701493  0.56744921     2.70070
O805        O  0.52450196  0.84369322  0.56114795    -0.79600
O806        O  0.51636528  0.78860106  0.65933129    -0.98490
Zr807      Zr  0.41075638  0.75069740  0.49121659     2.21500
Zr808      Zr  0.61838844  0.73768070  0.48951423     2.11130
O809        O  0.57403468  0.78799849  0.49535717    -2.47380
O810        O  0.46493052  0.79542225  0.49644138    -0.79400
O811        O  0.56616172  0.74580214  0.41738751    -0.71590
O812        O  0.46256255  0.74401552  0.56364906    -2.32550
O813        O  0.46643242  0.75104629  0.41748003    -2.28760
O814        O  0.56243225  0.73801340  0.56262136    -0.73350
H815        H  0.58318939  0.67416755  0.48362222     0.78640
H816        H  0.44107126  0.74343288  0.59397021     0.79730
H817        H  0.59899468  0.80445878  0.49710345     0.81960
H818        H  0.44669282  0.75329512  0.38704836     0.79560
H819        H  0.48562290  0.70873364  0.66086068     0.42600
H820        H  0.53797513  0.77023021  0.67010786     0.41570
H821        H  0.48845827  0.85139562  0.55444108     0.41250
H822        H  0.57427895  0.84906564  0.45402399     0.39180
H823        H  0.50507544  0.79884075  0.31839440     0.42310
H824        H  0.49573329  0.71870825  0.30950320     0.37100
H825        H  0.47169789  0.64165443  0.42966816     0.43210
H826        H  0.54797696  0.63351302  0.53857940     0.39630
H827        H  0.53164380  0.86063232  0.41683595     0.44550
H828        H  0.49562336  0.68188083  0.31216151     0.43270
H829        H  0.49874363  0.62951791  0.57419598     0.43410
H830        H  0.53692186  0.80701392  0.66793736     0.43760
O831        O  0.90901330  0.68377081  0.92338459    -0.75110
O832        O  0.95560885  0.70708864  0.85928890    -0.54010
C833        C  0.91857574  0.68935500  0.87625998     0.78620
O834        O  0.90696523  0.80278262  0.08605078    -0.59710
O835        O  0.95413401  0.77863446  0.14861557    -0.52740
C836        C  0.91634766  0.79706123  0.13276060     0.70640
O837        O  0.91259141  0.80499741  0.92082337    -0.74260
O838        O  0.95704709  0.77747708  0.85932184    -0.54830
C839        C  0.92234218  0.79814326  0.87458671     0.76640
O840        O  0.91598648  0.68291622  0.08994756    -0.59410
O841        O  0.95925588  0.70676876  0.15254691    -0.52530
C842        C  0.92458328  0.68759773  0.13680482     0.73230
Zr843      Zr  0.94464170  0.69669338  0.00523744     2.54710
O844        O  0.84959908  0.69672911  0.01040926    -0.79970
O845        O  0.95495902  0.63983085  0.00672119    -0.93390
Zr846      Zr  0.94212991  0.78867707  0.00323724     2.64680
O847        O  0.84718301  0.78941651  0.99863256    -0.98350
O848        O  0.95067080  0.84522953  0.00678288    -0.80410
O849        O  0.94267409  0.74245611  0.95439149    -0.83770
O850        O  0.94354149  0.74271942  0.05400581    -2.18470
O851        O  0.13369889  0.68435904  0.08365428    -0.67150
O852        O  0.09013482  0.70988934  0.14718526    -0.51720
C853        C  0.12799846  0.69147181  0.13021473     0.71610
O854        O  0.12490768  0.79984014  0.91194542    -0.60060
O855        O  0.08021950  0.77396175  0.85220750    -0.52040
C856        C  0.11598294  0.79275593  0.86590813     0.73420
O857        O  0.12887546  0.80121058  0.07917638    -0.71460
O858        O  0.08315579  0.77780960  0.14389007    -0.50130
C859        C  0.12025364  0.79538029  0.12631517     0.74800
O860        O  0.12828490  0.67955126  0.92202828    -0.66790
O861        O  0.08477587  0.70466974  0.85896136    -0.53980
C862        C  0.12074663  0.68508047  0.87528759     0.73180
Zr863      Zr  0.09681882  0.69738793  0.00277690     2.77540
O864        O  0.18612420  0.71354429  0.98621123    -0.97540
O865        O  0.10684857  0.64079132  0.01133208    -0.78360
Zr866      Zr  0.09292983  0.78867169  0.99786814     2.70070
O867        O  0.18684301  0.79387910  0.98667662    -0.79600
O868        O  0.07599612  0.84502352  0.99700171    -0.98690
Zr869      Zr  0.01903337  0.74085579  0.90075751     2.21500
Zr870      Zr  0.01962339  0.74279830  0.10541145     2.11130
O871        O  0.09524220  0.74330490  0.05060079    -2.47380
O872        O  0.09494182  0.74222787  0.95047372    -0.79400
O873        O  0.02069435  0.69632335  0.05520386    -0.71590
O874        O  0.01711115  0.78834788  0.94892433    -2.32550
O875        O  0.02096282  0.69485010  0.95333004    -2.28760
O876        O  0.01801535  0.78936417  0.05271684    -0.73350
H877        H  0.91246269  0.74266051  0.07509783     0.78640
H878        H  0.01657633  0.80655089  0.92690104     0.79730
H879        H  0.12667287  0.74336134  0.06994211     0.81960
H880        H  0.02201545  0.67616464  0.93316960     0.79560
H881        H  0.96992254  0.85090157  0.97534730     0.42600
H882        H  0.06724121  0.85018411  0.03254056     0.41570
H883        H  0.19882767  0.77637573  0.96488148     0.41250
H884        H  0.19243890  0.72992208  0.01113936     0.39180
H885        H  0.07307839  0.63407680  0.02616021     0.42310
H886        H  0.97259388  0.63448015  0.97426526     0.37100
H887        H  0.83833225  0.71579676  0.99149730     0.43210
H888        H  0.83578538  0.77308585  0.02296728     0.39630
H889        H  0.20885331  0.69575980  0.99660051     0.44550
H890        H  0.91900990  0.63223948  0.00349891     0.43270
H891        H  0.83539565  0.80947430  0.01398488     0.43410
H892        H  0.11075022  0.85407873  0.99066262     0.43760
C893        C  0.76736388  0.62389507  0.74470161    -0.02300
O894        O  0.61680022  0.55597900  0.91721149    -0.75110
O895        O  0.58184236  0.53069929  0.85154981    -0.54010
C896        C  0.61299616  0.55110271  0.87013740     0.78620
O897        O  0.62857301  0.93458856  0.07760856    -0.59710
O898        O  0.57738296  0.95644891  0.13991690    -0.52740
C899        C  0.61765537  0.93958086  0.12435491     0.70640
O900        O  0.62671214  0.93115515  0.91304655    -0.74260
O901        O  0.58337084  0.95546518  0.84907182    -0.54830
C902        C  0.61825541  0.93549357  0.86598003     0.76640
O903        O  0.60948161  0.55357743  0.08033095    -0.59410
O904        O  0.56800672  0.52552505  0.14209537    -0.52530
C905        C  0.60147338  0.54610160  0.12689666     0.73230
Zr906      Zr  0.58111188  0.54010437  0.99720380     2.54710
O907        O  0.67510879  0.54607245  0.00277735    -0.79970
O908        O  0.55636900  0.59537283  0.00390714    -0.93390
Zr909      Zr  0.59737728  0.94913358  0.99454259     2.64680
O910        O  0.68770833  0.96369455  0.97954372    -0.98350
O911        O  0.61333107  0.89275333  0.00004573    -0.80410
O912        O  0.59208699  0.99553809  0.94533301    -0.83770
O913        O  0.58873342  0.99377800  0.04567170    -2.18470
O914        O  0.39731334  0.54959579  0.07288500    -0.67150
O915        O  0.44530546  0.52643269  0.13577075    -0.51720
C916        C  0.40777195  0.54478309  0.11958955     0.71610
O917        O  0.41454215  0.93398057  0.91007972    -0.60060
O918        O  0.45449063  0.96050594  0.84608467    -0.52040
C919        C  0.41914304  0.94158214  0.86325487     0.73420
O920        O  0.40835778  0.92927631  0.07434151    -0.71460
O921        O  0.44599697  0.95568384  0.13723469    -0.50130
C922        C  0.41166843  0.93671315  0.12093871     0.74800
O923        O  0.40192774  0.54808532  0.90595117    -0.66790
O924        O  0.45620848  0.52688113  0.84494490    -0.53980
C925        C  0.41569939  0.54362401  0.85949211     0.73180
Zr926      Zr  0.43081076  0.53351238  0.99054360     2.77540
O927        O  0.33957103  0.51959303  0.98581835    -0.97540
O928        O  0.41812507  0.59019907  0.98810785    -0.78360
Zr929      Zr  0.44777583  0.94219501  0.99300252     2.70070
O930        O  0.35685172  0.92704020  0.99300437    -0.79600
O931        O  0.47585444  0.88731784  0.99081417    -0.98690
Zr932      Zr  0.51930824  0.99247940  0.89069899     2.21500
Zr933      Zr  0.51065403  0.99019381  0.09580732     2.11130
O934        O  0.43681053  0.98789868  0.04186284    -2.47380
O935        O  0.44160952  0.98803615  0.94186398    -0.79400
O936        O  0.50309771  0.53687912  0.04500924    -0.71590
O937        O  0.52414597  0.94538758  0.94198211    -2.32550
O938        O  0.50922133  0.53825986  0.94235371    -2.28760
O939        O  0.52074056  0.94392715  0.04564062    -0.73350
H940        H  0.61911608  0.99472210  0.06644857     0.78640
H941        H  0.52685866  0.92695843  0.92127419     0.79730
H942        H  0.40478939  0.98717683  0.06164413     0.81960
H943        H  0.50747736  0.55699818  0.92157897     0.79560
H944        H  0.58764488  0.88383220  0.97726599     0.42600
H945        H  0.48059583  0.88130918  0.02665203     0.41570
H946        H  0.33666017  0.94711553  0.99105488     0.41250
H947        H  0.33113692  0.50876663  0.01804610     0.39180
H948        H  0.44202171  0.59791212  0.01373377     0.42310
H949        H  0.53938105  0.60096591  0.97174792     0.37100
H950        H  0.69068089  0.53200935  0.97680312     0.43210
H951        H  0.69632635  0.97707053  0.00812320     0.39630
H952        H  0.32008985  0.53986344  0.98760444     0.44550
H953        H  0.58977708  0.60649266  0.00286132     0.43270
H954        H  0.70889999  0.94419029  0.98396513     0.43410
H955        H  0.44437073  0.87617806  0.98083267     0.43760
C956        C  0.26040960  0.87410671  0.74446977    -0.02300
O957        O  0.92646636  0.54475332  0.61479885    -0.75110
O958        O  0.86299565  0.52215530  0.56913395    -0.54010
C959        C  0.87905709  0.53911595  0.60534881     0.78620
O960        O  0.08626384  0.55361442  0.39368024    -0.59710
O961        O  0.15555392  0.53188509  0.43446189    -0.52740
C962        C  0.13500079  0.54873150  0.39876428     0.70640
O963        O  0.92173421  0.55649053  0.40560530    -0.74260
O964        O  0.86068057  0.52558787  0.44367926    -0.54830
C965        C  0.87561974  0.54649374  0.41102971     0.76640
O966        O  0.09770619  0.54521787  0.60500776    -0.59410
O967        O  0.16477270  0.52681578  0.55638594    -0.52530
C968        C  0.14660651  0.54185018  0.59491458     0.73230
Zr969      Zr  0.01118961  0.53453165  0.57933176     2.54710
O970        O  0.00678037  0.59152612  0.58056129    -0.79970
O971        O  0.01627985  0.53088496  0.67093222    -0.93390
Zr972      Zr  0.00578941  0.54387642  0.43560541     2.64680
O973        O  0.00232230  0.59980191  0.45246197    -0.98350
O974        O  0.99056918  0.54917671  0.34564845    -0.80410
O975        O  0.95471877  0.53964357  0.50996822    -0.83770
O976        O  0.06162419  0.54227881  0.50527690    -2.18470
O977        O  0.10507820  0.92947268  0.58872356    -0.67150
O978        O  0.16655688  0.96047815  0.55155886    -0.51720
C979        C  0.15204887  0.93823627  0.58174653     0.71610
O980        O  0.93104554  0.93828822  0.39702098    -0.60060
O981        O  0.86469940  0.95727225  0.44779214    -0.52040
C982        C  0.88272775  0.94104484  0.41034312     0.73420
O983        O  0.10068688  0.95558954  0.37748762    -0.71460
O984        O  0.16383977  0.96796407  0.43277206    -0.50130
C985        C  0.14831563  0.95766824  0.39058462     0.74800
O986        O  0.93361147  0.92912079  0.59953442    -0.66790
O987        O  0.86632221  0.95721231  0.56417559    -0.53980
C988        C  0.88510197  0.93735709  0.59647593     0.73180
Zr989      Zr  0.01806536  0.94272019  0.56436195     2.77540
O990        O  0.01563085  0.88733706  0.54443066    -0.97540
O991        O  0.03224511  0.93242061  0.65336909    -0.78360
Zr992      Zr  0.01701154  0.95280707  0.42052024     2.70070
O993        O  0.03621874  0.89666735  0.42290495    -0.79600
O994        O  0.00549697  0.94933842  0.32975867    -0.98690
Zr995      Zr  0.90943473  0.99183298  0.50385750     2.21500
Zr996      Zr  0.11620842  0.99632940  0.49709177     2.11130
O997        O  0.07130144  0.94790078  0.49095468    -2.47380
O998        O  0.96419367  0.94582831  0.49383418    -0.79400
O999        O  0.06486231  0.98933821  0.57176701    -0.71590
O1000       O  0.96088165  0.99700010  0.42877125    -2.32550
O1001       O  0.96461679  0.98796646  0.57508942    -2.28760
O1002       O  0.06179878  0.99987813  0.42577183    -0.73350
H1003       H  0.08194257  0.56095422  0.50676484     0.78640
H1004       H  0.93958521  0.99784047  0.39918378     0.79730
H1005       H  0.09554345  0.93030374  0.48721448     0.81960
H1006       H  0.94462409  0.98628989  0.60615482     0.79560
H1007       H  0.00315237  0.52896491  0.33136940     0.42600
H1008       H  0.02202388  0.96820234  0.31520155     0.41570
H1009       H  0.00169136  0.88708142  0.42793544     0.41250
H1010       H  0.05067791  0.88213707  0.52990474     0.39180
H1011       H  0.03904717  0.95320882  0.66756630     0.42310
H1012       H  0.98989650  0.51543558  0.68141971     0.37100
H1013       H  0.97322454  0.59728448  0.56454829     0.43210
H1014       H  0.03761826  0.60476798  0.46392899     0.39630
H1015       H  0.01489434  0.87654610  0.57770767     0.44550
H1016       H  0.00200461  0.55121577  0.68333560     0.43270
H1017       H  0.99948233  0.60995170  0.41881532     0.43410
H1018       H  0.02856032  0.93159159  0.31883886     0.43760
C1019       C  0.76627861  0.87142729  0.26440249    -0.02300
C1020       C  0.27414851  0.61807442  0.26540584    -0.02300
C1021       C  0.76399325  0.60844317  0.24579954    -0.02300
C1022       C  0.25622417  0.87270971  0.25475116    -0.02300
C1023       C  0.26704624  0.61808983  0.73058457    -0.02300
C1024       C  0.76496994  0.85493469  0.73551618    -0.02300
C1025       C  0.26212011  0.57281807  0.66845642    -0.05590
C1026       C  0.23486327  0.59179041  0.70471384     0.00330
C1027       C  0.18063113  0.58486485  0.71285903    -0.08240
C1028       C  0.15506300  0.57071010  0.67377011    -0.05620
C1029       C  0.18106497  0.55665361  0.63224226     0.00320
C1030       C  0.23638792  0.55612987  0.63108095    -0.08150
C1031       C  0.26846441  0.53973161  0.58991580     0.62230
H1032       H  0.30403054  0.57382876  0.66619554     0.12920
H1033       H  0.11296442  0.56960065  0.67781215     0.12940
C1034       C  0.14563306  0.58855075  0.76023726     0.62470
F1035       F  0.32163937  0.54223971  0.59672629    -0.22700
F1036       F  0.25684753  0.55298725  0.54348172    -0.20030
F1037       F  0.25759580  0.00823275  0.58990529    -0.19710
F1038       F  0.11038696  0.61329367  0.75375756    -0.19760
F1039       F  0.17161766  0.59192715  0.80414844    -0.20080
F1040       F  0.11707441  0.56169685  0.76767684    -0.22760
C1041       C  0.18312238  0.59764723  0.28802732    -0.05590
C1042       C  0.23743705  0.59194009  0.28916697     0.00330
C1043       C  0.25203533  0.56181563  0.31196052    -0.08240
C1044       C  0.21691052  0.54866646  0.34776077    -0.05620
C1045       C  0.16809369  0.56263959  0.35854623     0.00320
C1046       C  0.15031850  0.58780616  0.32715726    -0.08150
C1047       C  0.10025405  0.60715642  0.33692732     0.62230
H1048       H  0.16559651  0.61186335  0.25904459     0.12920
H1049       H  0.22718049  0.52731220  0.36806667     0.12940
C1050       C  0.29946507  0.54075881  0.29765200     0.62470
F1051       F  0.09861831  0.63467178  0.30879851    -0.22700
F1052       F  0.09698278  0.61539495  0.38717556    -0.20030
F1053       F  0.05735250  0.59060943  0.32402818    -0.19710
F1054       F  0.34580644  0.55526468  0.30413144    -0.19760
F1055       F  0.29583512  0.53108976  0.24855036    -0.20080
F1056       F  0.30213142  0.51362095  0.32681483    -0.22760
C1057       C  0.80032596  0.91398219  0.62045890    -0.05590
C1058       C  0.84979965  0.92288809  0.63417386     0.00330
C1059       C  0.86795453  0.91374213  0.68172579    -0.08240
C1060       C  0.84272486  0.89006262  0.70763176    -0.05620
C1061       C  0.79106713  0.88079333  0.69814563     0.00320
C1062       C  0.76889938  0.89467548  0.65171769    -0.08150
C1063       C  0.71500048  0.89031088  0.62835895     0.62230
H1064       H  0.78626207  0.92183557  0.58396990     0.12920
H1065       H  0.86743817  0.87916156  0.73469159     0.12940
C1066       C  0.91506727  0.92708955  0.70694164     0.62470
F1067       F  0.69181228  0.91951453  0.61993137    -0.22700
F1068       F  0.67984760  0.87326127  0.65667722    -0.20030
F1069       F  0.72164812  0.87609946  0.58201075    -0.19710
F1070       F  0.92967188  0.95538627  0.68596566    -0.19760
F1071       F  0.95624546  0.90552340  0.70420139    -0.20080
F1072       F  0.90308400  0.93245926  0.75731765    -0.22760
C1073       C  0.20762049  0.92382329  0.27396101    -0.05590
C1074       C  0.22582331  0.89437719  0.29314987     0.00330
C1075       C  0.22121666  0.88950468  0.34742404    -0.08240
C1076       C  0.20778917  0.91509651  0.37752579    -0.05620
C1077       C  0.18625782  0.94248988  0.35719317     0.00320
C1078       C  0.18596121  0.94724503  0.30463699    -0.08150
C1079       C  0.16204559  0.97597264  0.27880977     0.62230
H1080       H  0.20791157  0.92842889  0.23383572     0.12920
H1081       H  0.20579930  0.91173251  0.41824789     0.12940
C1082       C  0.22518657  0.85884322  0.37810676     0.62470
F1083       F  0.19899601  0.98929027  0.24694421    -0.22700
F1084       F  0.14447967  0.99853720  0.31237023    -0.20030
F1085       F  0.12032150  0.96707369  0.25052046    -0.19710
F1086       F  0.26603305  0.85979374  0.41111956    -0.19760
F1087       F  0.23013035  0.83246847  0.34894546    -0.20080
F1088       F  0.18035510  0.85569925  0.40781558    -0.22760
C1089       C  0.86607264  0.89321190  0.36581676    -0.05590
C1090       C  0.84792217  0.92318096  0.37891767     0.00330
C1091       C  0.80462463  0.93666084  0.35426826    -0.08240
C1092       C  0.78574419  0.92134528  0.31206986    -0.05620
C1093       C  0.79922391  0.88950512  0.30207214     0.00320
C1094       C  0.84113213  0.87497706  0.33082061    -0.08150
C1095       C  0.86331790  0.84107250  0.32888217     0.62230
H1096       H  0.89975131  0.88326466  0.38513790     0.12920
H1097       H  0.75674501  0.93356289  0.28992433     0.12940
C1098       C  0.77431586  0.96446250  0.37616193     0.62470
F1099       F  0.91409441  0.84132380  0.31003059    -0.22700
F1100       F  0.83594893  0.82046579  0.30091717    -0.20030
F1101       F  0.86488466  0.82856914  0.37727779    -0.19710
F1102       F  0.80647138  0.98903909  0.38286815    -0.19760
F1103       F  0.75311695  0.95591203  0.42257669    -0.20080
F1104       F  0.73400477  0.97469386  0.34565839    -0.22760
C1105       C  0.83756622  0.54223170  0.32783603    -0.05590
C1106       C  0.84098176  0.55922192  0.37235378     0.00330
C1107       C  0.83023444  0.59140415  0.37064428    -0.08240
C1108       C  0.81594166  0.60500795  0.32491278    -0.05620
C1109       C  0.79840961  0.58757680  0.28317342     0.00320
C1110       C  0.81387117  0.55452303  0.28387579    -0.08150
C1111       C  0.80983069  0.52938599  0.24372150     0.62230
H1112       H  0.85519954  0.51888030  0.32689701     0.12920
H1113       H  0.81113673  0.62996179  0.32510357     0.12940
C1114       C  0.83119711  0.61114291  0.41786770     0.62470
F1115       F  0.85935771  0.51741628  0.23194944    -0.22700
F1116       F  0.78754161  0.53884480  0.19967839    -0.20030
F1117       F  0.78067300  0.50508026  0.26316896    -0.19710
F1118       F  0.88061934  0.61085177  0.43781681    -0.19760
F1119       F  0.79636593  0.59887265  0.45276364    -0.20080
F1120       F  0.81617212  0.64207267  0.40887157    -0.22760
C1121       C  0.19904362  0.87796221  0.67224122    -0.05590
C1122       C  0.22778961  0.89546349  0.70694945     0.00330
C1123       C  0.23137752  0.92875819  0.69669124    -0.08240
C1124       C  0.21475421  0.94052289  0.64947545    -0.05620
C1125       C  0.18939571  0.92207423  0.61504699     0.00320
C1126       C  0.18341996  0.88997654  0.62571485    -0.08150
C1127       C  0.16119240  0.86727085  0.58868845     0.62230
H1128       H  0.19464083  0.85303935  0.67874862     0.12920
H1129       H  0.21567048  0.96549237  0.64191731     0.12940
C1130       C  0.24308065  0.95446763  0.73414903     0.62470
F1131       F  0.19439159  0.84129623  0.58417613    -0.22700
F1132       F  0.15566912  0.88028146  0.54096464    -0.20030
F1133       F  0.11306632  0.85760527  0.60658582    -0.19710
F1134       F  0.29171443  0.96642498  0.72331342    -0.19760
F1135       F  0.24016020  0.94505898  0.78381016    -0.20080
F1136       F  0.20640990  0.97879095  0.72972186    -0.22760
C1137       C  0.65148681  0.59278775  0.14863731    -0.05590
C1138       C  0.63573750  0.56273911  0.16292526     0.00330
C1139       C  0.65955296  0.54866396  0.20517596    -0.08240
C1140       C  0.70028624  0.56435059  0.22867206    -0.05620
C1141       C  0.72209721  0.59286903  0.21120197     0.00320
C1142       C  0.69412830  0.60803877  0.16982837    -0.08150
C1143       C  0.70442055  0.63913070  0.14213739     0.62230
H1144       H  0.63098419  0.60423663  0.11776366     0.12920
H1145       H  0.71629835  0.55328240  0.26126636     0.12940
C1146       C  0.64300392  0.51692789  0.22518380     0.62470
F1147       F  0.70640032  0.63406496  0.09060233    -0.22700
F1148       F  0.74969120  0.65362738  0.15247388    -0.20030
F1149       F  0.66320946  0.65988107  0.15243116    -0.19710
F1150       F  0.65194371  0.99477100  0.18835719    -0.19760
F1151       F  0.59049505  0.51819628  0.23858976    -0.20080
F1152       F  0.67038457  0.50741652  0.26737058    -0.22760
C1153       C  0.39937518  0.57881472  0.19445784    -0.05590
C1154       C  0.37454119  0.56262925  0.15699221     0.00330
C1155       C  0.31941517  0.56469646  0.15508109    -0.08240
C1156       C  0.29148965  0.58276473  0.19105312    -0.05620
C1157       C  0.31521855  0.59964734  0.22984356     0.00320
C1158       C  0.37216898  0.59662499  0.23194979    -0.08150
C1159       C  0.40816630  0.60909709  0.27230088     0.62230
H1160       H  0.44170591  0.57747367  0.19365360     0.12920
H1161       H  0.24929968  0.58398628  0.18907821     0.12940
C1162       C  0.28931474  0.54778438  0.11553067     0.62470
F1163       F  0.45417010  0.59131008  0.27508192    -0.22700
F1164       F  0.38687586  0.60783890  0.32021678    -0.20030
F1165       F  0.42221172  0.63919619  0.25999066    -0.19710
F1166       F  0.30667755  0.51689150  0.11258694    -0.19760
F1167       F  0.29630543  0.56267670  0.06945241    -0.20080
F1168       F  0.23618067  0.54782016  0.12649804    -0.22760
C1169       C  0.32374549  0.91642917  0.23599667    -0.05590
C1170       C  0.28787418  0.89524697  0.21607740     0.00330
C1171       C  0.28389893  0.89802123  0.16247080    -0.08240
C1172       C  0.32747617  0.90858121  0.13393837    -0.05620
C1173       C  0.37014674  0.92337814  0.15593809     0.00320
C1174       C  0.36649696  0.92864595  0.20854008    -0.08150
C1175       C  0.40623018  0.94726601  0.23659783     0.62230
H1176       H  0.31593032  0.92593999  0.27255560     0.12920
H1177       H  0.32501533  0.90807949  0.09322477     0.12940
C1178       C  0.23304902  0.89825997  0.13370917     0.62470
F1179       F  0.39620216  0.94729059  0.28814974    -0.22700
F1180       F  0.40498964  0.97807917  0.21982922    -0.20030
F1181       F  0.45573295  0.93412336  0.22900985    -0.19710
F1182       F  0.18916794  0.89493564  0.16406248    -0.19760
F1183       F  0.23511724  0.87509621  0.09788132    -0.20080
F1184       F  0.22702695  0.92680683  0.10883979    -0.22760
C1185       C  0.69587348  0.90003526  0.75298785    -0.05590
C1186       C  0.72456747  0.87367016  0.77332396     0.00330
C1187       C  0.71515248  0.86890530  0.82770884    -0.08240
C1188       C  0.68174098  0.89044679  0.85408876    -0.05620
C1189       C  0.65223335  0.91493710  0.83151442     0.00320
C1190       C  0.65835136  0.91896055  0.77912609    -0.08150
C1191       C  0.62633514  0.94350733  0.75024991     0.62230
H1192       H  0.70384722  0.90801959  0.71613635     0.12920
H1193       H  0.67737570  0.88712399  0.89454138     0.12940
C1194       C  0.73495414  0.84319459  0.86481650     0.62470
F1195       F  0.63710491  0.94312472  0.69894216    -0.22700
F1196       F  0.63659210  0.97310457  0.76736076    -0.20030
F1197       F  0.57381333  0.93767959  0.75683931    -0.19710
F1198       F  0.76645206  0.85679988  0.89971391    -0.19760
F1199       F  0.76196336  0.81786654  0.84521967    -0.20080
F1200       F  0.69253107  0.83094381  0.89094198    -0.22760
C1201       C  0.40098412  0.57900804  0.78423360    -0.05590
C1202       C  0.38063205  0.55869460  0.82100217     0.00330
C1203       C  0.32613928  0.55471210  0.82257791    -0.08240
C1204       C  0.29398312  0.57442226  0.79299860    -0.05620
C1205       C  0.31232096  0.59760198  0.75849243     0.00320
C1206       C  0.36893725  0.59640622  0.74982156    -0.08150
C1207       C  0.39946296  0.61041166  0.70503983     0.62230
H1208       H  0.44309369  0.58098182  0.78221914     0.12920
H1209       H  0.25281786  0.57130569  0.79712859     0.12940
C1210       C  0.29986830  0.53046580  0.85621377     0.62470
F1211       F  0.44551062  0.59338138  0.69590428    -0.22700
F1212       F  0.41332283  0.64060609  0.71521832    -0.20030
F1213       F  0.37282134  0.60947720  0.66070541    -0.19710
F1214       F  0.28328355  0.54443915  0.90060327    -0.19760
F1215       F  0.33302126  0.50523766  0.86690670    -0.20080
F1216       F  0.25679115  0.51880508  0.83282766    -0.22760
C1217       C  0.63816486  0.91686579  0.21040218    -0.05590
C1218       C  0.65552912  0.92484794  0.16168044     0.00330
C1219       C  0.70938632  0.91928474  0.14983565    -0.08240
C1220       C  0.74118139  0.90286231  0.18430456    -0.05620
C1221       C  0.72483045  0.89306218  0.23326236     0.00320
C1222       C  0.67141859  0.90315608  0.24782010    -0.08150
C1223       C  0.64787456  0.90386100  0.30171116     0.62230
H1224       H  0.59760653  0.92256057  0.21919717     0.12920
H1225       H  0.78033835  0.89755368  0.17141491     0.12940
C1226       C  0.73500508  0.93087128  0.10103129     0.62470
F1227       F  0.59628141  0.91454928  0.30282536    -0.22700
F1228       F  0.67436715  0.92453040  0.33023288    -0.20030
F1229       F  0.64739780  0.87503277  0.32508339    -0.19710
F1230       F  0.72065512  0.96190261  0.09269757    -0.19760
F1231       F  0.72019372  0.91258851  0.06147888    -0.20080
F1232       F  0.78907557  0.92933372  0.10242600    -0.22760
C1233       C  0.33477474  0.91420883  0.85591892    -0.05590
C1234       C  0.37814742  0.92720553  0.83035532     0.00330
C1235       C  0.37942950  0.92537441  0.77715681    -0.08240
C1236       C  0.34003097  0.90871561  0.75283517    -0.05620
C1237       C  0.29746291  0.89389383  0.77847181     0.00320
C1238       C  0.29428194  0.89837577  0.83247052    -0.08150
C1239       C  0.24955786  0.88836854  0.86782430     0.62230
H1240       H  0.33250613  0.91648201  0.89632052     0.12920
H1241       H  0.34212050  0.90756841  0.71224436     0.12940
C1242       C  0.42197348  0.94072239  0.74575202     0.62470
F1243       F  0.25155009  0.90185235  0.91496678    -0.22700
F1244       F  0.25167127  0.85647785  0.87591077    -0.20030
F1245       F  0.20219263  0.89789196  0.84908756    -0.19710
F1246       F  0.47007368  0.92820966  0.75915440    -0.19760
F1247       F  0.42036504  0.97267048  0.75382047    -0.20080
F1248       F  0.41630885  0.93608927  0.69459978    -0.22760
C1249       C  0.80070835  0.60587284  0.65623743    -0.05590
C1250       C  0.79864593  0.59999939  0.70916714     0.00330
C1251       C  0.82097520  0.57004659  0.72543130    -0.08240
C1252       C  0.84086131  0.54899962  0.68864715    -0.05620
C1253       C  0.84210923  0.55648090  0.63714180     0.00320
C1254       C  0.82301417  0.58573808  0.62079806    -0.08150
C1255       C  0.82664293  0.59824471  0.56671574     0.62230
H1256       H  0.78235300  0.62563938  0.63908546     0.12920
H1257       H  0.85830455  0.52671735  0.70051736     0.12940
C1258       C  0.82513597  0.55731154  0.77943685     0.62470
F1259       F  0.77704227  0.60685504  0.55104098    -0.22700
F1260       F  0.84789881  0.57717025  0.53257048    -0.20030
F1261       F  0.85725510  0.62444204  0.56543851    -0.19710
F1262       F  0.81421542  0.57871381  0.81664611    -0.19760
F1263       F  0.87565958  0.54613742  0.78709782    -0.20080
F1264       F  0.79159089  0.53266659  0.78592599    -0.22760
C1265       C  0.71832313  0.60859860  0.82733691    -0.05590
C1266       C  0.72734213  0.60226160  0.77582795     0.00330
C1267       C  0.69423135  0.57840760  0.75484726    -0.08240
C1268       C  0.66007497  0.56152009  0.78747215    -0.05620
C1269       C  0.64933108  0.57029619  0.83715832     0.00320
C1270       C  0.67632155  0.59649586  0.85560125    -0.08150
C1271       C  0.65932669  0.61410846  0.90301699     0.62230
H1272       H  0.74248384  0.62483886  0.84600519     0.12920
H1273       H  0.63985439  0.54158184  0.77342317     0.12940
C1274       C  0.69213635  0.56849719  0.69957213     0.62470
F1275       F  0.67894253  0.64399912  0.90347062    -0.22700
F1276       F  0.67710999  0.59847698  0.94541901    -0.20030
F1277       F  0.60546947  0.61747599  0.90505634    -0.19710
F1278       F  0.72784299  0.54434785  0.69053104    -0.19760
F1279       F  0.70039762  0.59255973  0.66582602    -0.20080
F1280       F  0.64321943  0.55756800  0.68871144    -0.22760
C1281       C  0.16115348  0.67787569  0.21740965    -0.05590
C1282       C  0.16907269  0.67711246  0.16505015     0.00330
C1283       C  0.21847201  0.66445200  0.14731542    -0.08240
C1284       C  0.25140277  0.64798363  0.18093351    -0.05620
C1285       C  0.23946684  0.64346046  0.23265412     0.00320
C1286       C  0.19795980  0.66455405  0.25168863    -0.08150
C1287       C  0.19328379  0.67624357  0.30586514     0.62230
H1288       H  0.12672991  0.69049248  0.23140788     0.12920
H1289       H  0.28842834  0.63932443  0.16627978     0.12940
C1290       C  0.23941572  0.66966121  0.09388019     0.62470
F1291       F  0.23370486  0.69591668  0.31484078    -0.22700
F1292       F  0.19378181  0.65218761  0.34053569    -0.20030
F1293       F  0.14746958  0.69350264  0.31464556    -0.19710
F1294       F  0.23486313  0.70118354  0.08213837    -0.19760
F1295       F  0.21241697  0.65196171  0.06039891    -0.20080
F1296       F  0.29181446  0.66118894  0.08820683    -0.22760
C1297       C  0.13252329  0.82555360  0.20416862    -0.05590
C1298       C  0.15527959  0.81105557  0.16237206     0.00330
C1299       C  0.20945110  0.81425716  0.15376033    -0.08240
C1300       C  0.23757941  0.83347882  0.18562307    -0.05620
C1301       C  0.21636475  0.84976856  0.22770935     0.00320
C1302       C  0.15995260  0.84520658  0.23683796    -0.08150
C1303       C  0.12425119  0.85971398  0.27812328     0.62230
H1304       H  0.09104177  0.82215542  0.20915548     0.12920
H1305       H  0.27647923  0.83833077  0.17358344     0.12940
C1306       C  0.23800549  0.79906091  0.10917963     0.62470
F1307       F  0.07270075  0.85087833  0.27557112    -0.22700
F1308       F  0.12213113  0.89179763  0.27485145    -0.20030
F1309       F  0.13973597  0.84962815  0.32448569    -0.19710
F1310       F  0.22731709  0.81612302  0.06598601    -0.19760
F1311       F  0.22253436  0.76852896  0.10386750    -0.20080
F1312       F  0.29164424  0.79831148  0.11465430    -0.22760
C1313       C  0.89590421  0.84080285  0.19178294    -0.05590
C1314       C  0.87939005  0.81339821  0.16923362     0.00330
C1315       C  0.82482737  0.80810345  0.17008376    -0.08240
C1316       C  0.79040738  0.82850778  0.19705521    -0.05620
C1317       C  0.80667169  0.85440725  0.22498539     0.00320
C1318       C  0.86036665  0.86292787  0.21441047    -0.08150
C1319       C  0.88187807  0.89585583  0.21786274     0.62230
H1320       H  0.93652218  0.84687575  0.18632332     0.12920
H1321       H  0.74986973  0.82391965  0.19395642     0.12940
C1322       C  0.79944798  0.78170681  0.14247994     0.62470
F1323       F  0.90822342  0.90315430  0.17323787    -0.22700
F1324       F  0.91697393  0.89706129  0.25658571    -0.20030
F1325       F  0.84393621  0.91900061  0.22418667    -0.19710
F1326       F  0.83480589  0.76055368  0.12133208    -0.19760
F1327       F  0.76884464  0.79435973  0.10456213    -0.20080
F1328       F  0.76779072  0.76532664  0.17592400    -0.22760
C1329       C  0.23520793  0.82312105  0.79409441    -0.05590
C1330       C  0.21796122  0.85260315  0.77444310     0.00330
C1331       C  0.16111970  0.85846919  0.78062881    -0.08240
C1332       C  0.12932429  0.83507372  0.80312109    -0.05620
C1333       C  0.14968262  0.80841593  0.82696419     0.00320
C1334       C  0.20375285  0.80207008  0.82182380    -0.08150
C1335       C  0.23112907  0.77366076  0.84559102     0.62230
H1336       H  0.27481083  0.81627061  0.79120276     0.12920
H1337       H  0.08738012  0.83902908  0.80676978     0.12940
C1338       C  0.12892876  0.88864767  0.76943290     0.62470
F1339       F  0.26042537  0.75792467  0.80901265    -0.22700
F1340       F  0.19700925  0.75264394  0.86739921    -0.20030
F1341       F  0.26435875  0.78359659  0.88220315    -0.19710
F1342       F  0.10440423  0.88611668  0.72379163    -0.19760
F1343       F  0.15693847  0.91544026  0.76971100    -0.20080
F1344       F  0.09024021  0.89329230  0.80622695    -0.22760
C1345       C  0.86825049  0.79496729  0.79984833    -0.05590
C1346       C  0.88798249  0.81369111  0.83676286     0.00330
C1347       C  0.87195218  0.84549434  0.83835522    -0.08240
C1348       C  0.83215821  0.85626195  0.80609444    -0.05620
C1349       C  0.81066980  0.83785565  0.76725178     0.00320
C1350       C  0.83411767  0.80636343  0.76223942    -0.08150
C1351       C  0.83056964  0.78412493  0.71784911     0.62230
H1352       H  0.88113392  0.77061983  0.80076892     0.12920
H1353       H  0.81816175  0.88026957  0.81004667     0.12940
C1354       C  0.89686960  0.86831371  0.87341905     0.62470
F1355       F  0.86187728  0.75740459  0.72347427    -0.22700
F1356       F  0.84961918  0.79833515  0.67459768    -0.20030
F1357       F  0.78052556  0.77375709  0.71270258    -0.19710
F1358       F  0.95069963  0.86435807  0.87101253    -0.19760
F1359       F  0.87918204  0.86333087  0.92238589    -0.20080
F1360       F  0.88490414  0.89911519  0.86021094    -0.22760
C1361       C  0.23717044  0.63685614  0.81902204    -0.05590
C1362       C  0.22960833  0.63858987  0.76651972     0.00330
C1363       C  0.18693651  0.65944227  0.75030721    -0.08240
C1364       C  0.15425585  0.67445671  0.78723285    -0.05620
C1365       C  0.15800379  0.66819135  0.83892310     0.00320
C1366       C  0.19914622  0.64712870  0.85454926    -0.08150
C1367       C  0.20179960  0.63226031  0.90699094     0.62230
H1368       H  0.27147708  0.62517117  0.83344371     0.12920
H1369       H  0.12427827  0.69122066  0.77573828     0.12940
C1370       C  0.17505048  0.66841603  0.69551905     0.62470
F1371       F  0.23728476  0.60721523  0.90890744    -0.22700
F1372       F  0.15358127  0.62068929  0.92085500    -0.20030
F1373       F  0.21719820  0.65384634  0.94128246    -0.19710
F1374       F  0.12727417  0.68414867  0.69126477    -0.19760
F1375       F  0.17229721  0.64251303  0.66562242    -0.20080
F1376       F  0.21230196  0.68839336  0.67650667    -0.22760
C1377       C  0.88098368  0.63775701  0.15405911    -0.05590
C1378       C  0.89135329  0.66751760  0.17176046     0.00330
C1379       C  0.86392596  0.67737447  0.21556676    -0.08240
C1380       C  0.82476043  0.65786696  0.23726480    -0.05620
C1381       C  0.80902332  0.62855267  0.21670764     0.00320
C1382       C  0.84039594  0.61867621  0.17288086    -0.08150
C1383       C  0.83651258  0.58834952  0.14376421     0.62230
H1384       H  0.90580926  0.62959653  0.12307781     0.12920
H1385       H  0.80637869  0.66645757  0.27120459     0.12940
C1386       C  0.87641697  0.70817650  0.23977769     0.62470
F1387       F  0.85828747  0.59058788  0.09552841    -0.22700
F1388       F  0.78601451  0.58013487  0.13616851    -0.20030
F1389       F  0.86468538  0.56522253  0.16858320    -0.19710
F1390       F  0.86878531  0.73252962  0.20579770    -0.19760
F1391       F  0.92800812  0.70734409  0.25421238    -0.20080
F1392       F  0.84530448  0.71417979  0.28210222    -0.22760
C1393       C  0.83180909  0.68625054  0.83562275    -0.05590
C1394       C  0.88288911  0.67425343  0.84002321     0.00330
C1395       C  0.89660742  0.64644297  0.81466919    -0.08240
C1396       C  0.85956427  0.63242144  0.78384472    -0.05620
C1397       C  0.80616122  0.64292548  0.77993124     0.00320
C1398       C  0.79282007  0.67156490  0.80731784    -0.08150
C1399       C  0.74012212  0.68951412  0.80620080     0.62230
H1400       H  0.82267600  0.70786585  0.85523744     0.12920
H1401       H  0.87381078  0.61282058  0.76231773     0.12940
C1402       C  0.95023128  0.63106909  0.82161841     0.62470
F1403       F  0.73366703  0.70915949  0.84715904    -0.22700
F1404       F  0.69821798  0.67019269  0.80839395    -0.20030
F1405       F  0.73751131  0.70808397  0.76330146    -0.19710
F1406       F  0.95724792  0.62420998  0.87220402    -0.19760
F1407       F  0.98852463  0.65118664  0.80499012    -0.20080
F1408       F  0.95632051  0.60340440  0.79524166    -0.22760
C1409       C  0.76010505  0.82562430  0.65150547    -0.05590
C1410       C  0.73729009  0.83061337  0.70084101     0.00330
C1411       C  0.69004029  0.81361628  0.71203648    -0.08240
C1412       C  0.66975078  0.79505059  0.67413831    -0.05620
C1413       C  0.68974871  0.79418027  0.62476257     0.00320
C1414       C  0.73704175  0.80847469  0.61339792    -0.08150
C1415       C  0.76204553  0.80675934  0.56094824     0.62230
H1416       H  0.79632658  0.83648514  0.64128416     0.12920
H1417       H  0.63500231  0.78179648  0.68169769     0.12940
C1418       C  0.65910049  0.81292649  0.76184370     0.62470
F1419       F  0.80772698  0.82331486  0.55720848    -0.22700
F1420       F  0.72793054  0.81912396  0.52566676    -0.20030
F1421       F  0.77405513  0.77585534  0.54957146    -0.19710
F1422       F  0.63787542  0.84200352  0.77322176    -0.19760
F1423       F  0.69054420  0.80144999  0.79902541    -0.20080
F1424       F  0.61717399  0.79310268  0.76147611    -0.22760
C1425       C  0.34012551  0.68854965  0.66639543    -0.05590
C1426       C  0.33405029  0.68242732  0.61529118     0.00330
C1427       C  0.30168545  0.65845884  0.60103526    -0.08240
C1428       C  0.27876082  0.63976273  0.63882873    -0.05620
C1429       C  0.28942188  0.64258331  0.69128505     0.00320
C1430       C  0.31815373  0.66972993  0.70510252    -0.08150
C1431       C  0.32596952  0.68051634  0.75921083     0.62230
H1432       H  0.36445819  0.70793714  0.67556267     0.12920
H1433       H  0.25202428  0.62295995  0.62598273     0.12940
C1434       C  0.29345410  0.65190434  0.54576554     0.62470
F1435       F  0.36409337  0.70280673  0.76159242    -0.22700
F1436       F  0.34159711  0.65617950  0.79042902    -0.20030
F1437       F  0.28025446  0.69422126  0.77796180    -0.19710
F1438       F  0.34085882  0.64376084  0.52281685    -0.19760
F1439       F  0.27281248  0.67844212  0.52233618    -0.20080
F1440       F  0.25948563  0.62769357  0.53924295    -0.22760
C1441       C  0.69077440  0.64153857  0.36715874    -0.05590
C1442       C  0.68056108  0.67235556  0.35273599     0.00330
C1443       C  0.68909584  0.68100104  0.30165558    -0.08240
C1444       C  0.71198698  0.65936014  0.26803247    -0.05620
C1445       C  0.72515976  0.62839841  0.28211475     0.00320
C1446       C  0.70449403  0.61842735  0.33146888    -0.08150
C1447       C  0.68622874  0.58548022  0.34596084     0.62230
H1448       H  0.68002978  0.63507426  0.40557299     0.12920
H1449       H  0.72149096  0.66730752  0.23073178     0.12940
C1450       C  0.67348406  0.71299070  0.28240495     0.62470
F1451       F  0.66448733  0.58414859  0.39424795    -0.22700
F1452       F  0.72577711  0.56318242  0.34546437    -0.20030
F1453       F  0.64705084  0.57732563  0.31417480    -0.19710
F1454       F  0.69278725  0.73493025  0.31404079    -0.19760
F1455       F  0.61970145  0.71512133  0.28155884    -0.20080
F1456       F  0.69278623  0.71900447  0.23414356    -0.22760
C1457       C  0.32846674  0.87053592  0.32198343    -0.05590
C1458       C  0.30142656  0.85436765  0.28434113     0.00330
C1459       C  0.31466683  0.82166323  0.28122376    -0.08240
C1460       C  0.33041984  0.80614863  0.32588337    -0.05620
C1461       C  0.35500084  0.82269262  0.36343173     0.00320
C1462       C  0.35830337  0.85542894  0.35871503    -0.08150
C1463       C  0.38868187  0.87473423  0.39539399     0.62230
H1464       H  0.32111031  0.89477786  0.32848371     0.12920
H1465       H  0.33411253  0.78087654  0.32633995     0.12940
C1466       C  0.34145404  0.80809569  0.23423174     0.62470
F1467       F  0.37720577  0.90651037  0.39097193    -0.22700
F1468       F  0.44154704  0.87040869  0.38585822    -0.20030
F1469       F  0.37703304  0.86562280  0.44441441    -0.19710
F1470       F  0.35707764  0.83152414  0.20112271    -0.19760
F1471       F  0.30874806  0.78771375  0.21140895    -0.20080
F1472       F  0.38673835  0.79130035  0.24618273    -0.22760
C1473       C  0.69762830  0.82911686  0.27271659    -0.05590
C1474       C  0.73573936  0.84636145  0.29691627     0.00330
C1475       C  0.74250592  0.83847619  0.34996945    -0.08240
C1476       C  0.73064340  0.80824189  0.36598243    -0.05620
C1477       C  0.68615432  0.79556956  0.34660228     0.00320
C1478       C  0.67015174  0.80538579  0.29754000    -0.08150
C1479       C  0.62406315  0.79303811  0.26954330     0.62230
H1480       H  0.68389853  0.83687060  0.23622571     0.12920
H1481       H  0.74183726  0.80104881  0.40379188     0.12940
C1482       C  0.74062769  0.86086079  0.39486406     0.62470
F1483       F  0.64189952  0.78009090  0.22461607    -0.22700
F1484       F  0.58965082  0.81760688  0.25859588    -0.20030
F1485       F  0.59707210  0.77058209  0.29615702    -0.19710
F1486       F  0.73171079  0.89142961  0.38192915    -0.19760
F1487       F  0.78592773  0.85804373  0.42200778    -0.20080
F1488       F  0.69949435  0.85336617  0.42737917    -0.22760
C1489       C  0.67992677  0.64732086  0.71431007    -0.05590
C1490       C  0.73483559  0.64887528  0.71193884     0.00330
C1491       C  0.75487961  0.67212236  0.67659411    -0.08240
C1492       C  0.72048383  0.68642043  0.64133483    -0.05620
C1493       C  0.66877877  0.67703278  0.63675561     0.00320
C1494       C  0.64857472  0.65623836  0.67430626    -0.08150
C1495       C  0.59493252  0.64177508  0.67351427     0.62230
H1496       H  0.66032076  0.63638090  0.74585774     0.12920
H1497       H  0.73529197  0.70377846  0.61485499     0.12940
C1498       C  0.81158999  0.68135433  0.66922504     0.62470
F1499       F  0.59044525  0.61658267  0.70666328    -0.22700
F1500       F  0.58533303  0.63053665  0.62611304    -0.20030
F1501       F  0.55778457  0.66389827  0.68795531    -0.19710
F1502       F  0.82545876  0.68051605  0.61847571    -0.19760
F1503       F  0.84713428  0.66244551  0.69378288    -0.20080
F1504       F  0.81629593  0.71156620  0.68548985    -0.22760
C1505       C  0.35646859  0.80810810  0.68299377    -0.05590
C1506       C  0.35007272  0.81444144  0.63140188     0.00330
C1507       C  0.32486105  0.84254038  0.61732874    -0.08240
C1508       C  0.30430144  0.86203411  0.65529832    -0.05620
C1509       C  0.29967927  0.85330323  0.70774903     0.00320
C1510       C  0.33661268  0.82840480  0.72116373    -0.08150
C1511       C  0.36642927  0.82453129  0.77033164     0.62230
H1512       H  0.38267313  0.78877282  0.69334872     0.12920
H1513       H  0.29306283  0.88530102  0.64295878     0.12940
C1514       C  0.32323562  0.85312223  0.56237178     0.62470
F1515       F  0.41856092  0.83052614  0.76055039    -0.22700
F1516       F  0.36317244  0.79394083  0.78789017    -0.20030
F1517       F  0.34955061  0.84390098  0.80849002    -0.19710
F1518       F  0.29901552  0.83089543  0.53427092    -0.19760
F1519       F  0.37363508  0.85684954  0.54398651    -0.20080
F1520       F  0.29590771  0.88128587  0.55610831    -0.22760
C1521       C  0.32697273  0.66484863  0.28126065    -0.05590
C1522       C  0.30080840  0.63936640  0.30436088     0.00330
C1523       C  0.29817695  0.63883171  0.35925253    -0.08240
C1524       C  0.31527214  0.66505830  0.38511154    -0.05620
C1525       C  0.34226422  0.68881461  0.36105491     0.00320
C1526       C  0.34799326  0.68908819  0.30817780    -0.08150
C1527       C  0.37478350  0.71468585  0.27792803     0.62230
H1528       H  0.33163713  0.66585694  0.24055783     0.12920
H1529       H  0.31287269  0.66586717  0.42589252     0.12940
C1530       C  0.28344582  0.61138735  0.39349770     0.62470
F1531       F  0.33922850  0.72837811  0.24531014    -0.22700
F1532       F  0.41598482  0.70194443  0.24980159    -0.20030
F1533       F  0.39380959  0.73781385  0.30771008    -0.19710
F1534       F  0.31168611  0.58487745  0.38037578    -0.19760
F1535       F  0.23075202  0.60701948  0.39291907    -0.20080
F1536       F  0.29505377  0.61605754  0.44342153    -0.22760
loop_ 
_geom_bond_atom_site_label_1 
_geom_bond_atom_site_label_2 
_geom_bond_distance 
_geom_bond_site_symmetry_2 
_ccdc_geom_bond_type 
O1          Zr13   2.384       .  S
O1            C3   1.276       .  A
O2          Zr39   2.438       .  S
O2            C3   1.290       .  A
C3          C757   1.452       .  S
O4          Zr16   2.399       .  S
O4            C6   1.277       .  A
O5          Zr40   2.474       .  S
O5            C6   1.297       .  A
C6          C725   1.498       .  S
O7          Zr16   2.400       .  S
O7            C9   1.279       .  A
O8          Zr39   2.450       .  S
O8            C9   1.291       .  A
C9          C658   1.467       .  S
O10         Zr13   2.410       .  S
O10          C12   1.280       .  A
O11         Zr40   2.466       .  S
O11          C12   1.295       .  A
C12         C674   1.481       .  S
Zr13         O14   2.435       .  S
Zr13         O15   2.436       .  S
Zr13         O19   2.369       .  S
Zr13         O20   2.360       .  S
Zr13         O43   2.342       .  S
Zr13         O45   2.365       .  S
O14          H57   0.990       .  S
O15          H56   0.990       .  S
O15          H60   0.990       .  S
Zr16         O17   2.436       .  S
Zr16         O18   2.429       .  S
Zr16         O20   2.370       .  S
Zr16         O19   2.352       .  S
Zr16         O44   2.344       .  S
Zr16         O46   2.354       .  S
O17          H58   0.989       .  S
O17          H61   0.990       .  S
O18          H51   0.991       .  S
O19         Zr39   2.393       .  S
O20         Zr40   2.393       .  S
O20          H47   0.966       .  S
O21         Zr33   2.376       .  S
O21          C23   1.275       .  A
O22         Zr40   2.457       .  S
O22          C23   1.295       .  A
C23         C709   1.472       .  S
O24         Zr36   2.404       .  S
O24          C26   1.281       .  A
O25         Zr39   2.470       .  S
O25          C26   1.296       .  A
C26         C738   1.479       .  S
O27         Zr36   2.396       .  S
O27          C29   1.281       .  A
O28         Zr40   2.439       .  S
O28          C29   1.289       .  A
C29         C645   1.478       .  S
O30         Zr33   2.396       .  S
O30          C32   1.276       .  A
O31         Zr39   2.438       .  S
O31          C32   1.288       .  A
C32         C693   1.460       .  S
Zr33         O34   2.440       .  S
Zr33         O35   2.433       .  S
Zr33         O41   2.359       .  S
Zr33         O42   2.356       .  S
Zr33         O45   2.357       .  S
Zr33         O43   2.363       .  S
O34          H54   0.989       .  S
O34          H59   0.989       .  S
O35          H55   0.991       .  S
Zr36         O37   2.434       .  S
Zr36         O38   2.438       .  S
Zr36         O42   2.365       .  S
Zr36         O41   2.365       .  S
Zr36         O46   2.357       .  S
Zr36         O44   2.357       .  S
O37          H53   0.990       .  S
O38          H52   0.990       .  S
O38          H62   0.990       .  S
Zr39         O42   2.399       .  S
Zr39         O44   2.368       .  S
Zr39         O45   2.394       .  S
Zr40         O41   2.408       .  S
Zr40         O43   2.374       .  S
Zr40         O46   2.385       .  S
O41          H49   0.965       .  S
O44          H48   0.965       .  S
O45          H50   0.964       .  S
O63         Zr75   2.449   1_556  S
O63          C65   1.288       .  A
O64        Zr101   2.486   1_655  S
O64          C65   1.299       .  A
C65         C626   1.504       .  S
O66         Zr78   2.432       .  S
O66          C68   1.286       .  A
O67        Zr102   2.507   1_655  S
O67          C68   1.304       .  A
C68         C546   1.503       .  S
O69         Zr78   2.416   1_556  S
O69          C71   1.282       .  A
O70        Zr101   2.463   1_655  S
O70          C71   1.297       .  A
C71         C578   1.486       .  S
O72         Zr75   2.418       .  S
O72          C74   1.286       .  A
O73        Zr102   2.513   1_655  S
O73          C74   1.303       .  A
C74         C610   1.517       .  S
Zr75         O76   2.434       .  S
Zr75         O77   2.436       .  S
Zr75         O81   2.359   1_554  S
Zr75         O82   2.367       .  S
Zr75        O105   2.379   1_655  S
Zr75        O107   2.365   1_654  S
O76         H119   0.990   1_554  S
O77         H118   0.990   1_554  S
O77         H122   0.990       .  S
Zr78         O79   2.436   1_554  S
Zr78         O80   2.435       .  S
Zr78         O82   2.365       .  S
Zr78         O81   2.375   1_554  S
Zr78        O106   2.374   1_654  S
Zr78        O108   2.369   1_655  S
O79         H120   0.989   1_556  S
O79         H123   0.990   1_556  S
O80         H113   0.990   1_554  S
O81        Zr101   2.392   1_655  S
O82        Zr102   2.402   1_655  S
O82         H109   0.963       .  S
O83         Zr95   2.414       .  S
O83          C85   1.280       .  A
O84        Zr102   2.524       .  S
O84          C85   1.307       .  A
C85         C514   1.526       .  S
O86         Zr98   2.449       .  S
O86          C88   1.288       .  A
O87        Zr101   2.469       .  S
O87          C88   1.295       .  A
C88         C565   1.494       .  S
O89         Zr98   2.435   1_554  S
O89          C91   1.287       .  A
O90        Zr102   2.484       .  S
O90          C91   1.301       .  A
C91         C530   1.502       .  S
O92         Zr95   2.397   1_556  S
O92          C94   1.276       .  A
O93        Zr101   2.504       .  S
O93          C94   1.304       .  A
C94         C597   1.517       .  S
Zr95         O96   2.436   1_554  S
Zr95         O97   2.432       .  S
Zr95        O103   2.349       .  S
Zr95        O104   2.349   1_554  S
Zr95        O107   2.373   1_554  S
Zr95        O105   2.370       .  S
O96         H116   0.988   1_556  S
O96         H121   0.984       .  S
O97         H117   0.990       .  S
Zr98         O99   2.432       .  S
Zr98        O100   2.434       .  S
Zr98        O104   2.361       .  S
Zr98        O103   2.374   1_556  S
Zr98        O108   2.381   1_556  S
Zr98        O106   2.359       .  S
O99         H115   0.989       .  S
O100        H114   0.990   1_556  S
O100        H124   0.990       .  S
Zr101       O104   2.375       .  S
Zr101       O106   2.410       .  S
Zr101       O107   2.394       .  S
Zr102       O103   2.396       .  S
Zr102       O105   2.404       .  S
Zr102       O108   2.415       .  S
O103        H111   0.964       .  S
O106        H110   0.966       .  S
O107        H112   0.966       .  S
C125        C482   1.587       .  S
C125        C498   1.606       .  S
C125        C629   1.621       .  S
C125        C722   1.595       .  S
O126       Zr138   2.388       .  S
O126        C128   1.275       .  A
O127       Zr932   2.516   1_545  S
O127        C128   1.306       .  A
C128        C501   1.513       .  S
O129       Zr141   2.427   1_554  S
O129        C131   1.284       .  A
O130       Zr165   2.504       .  S
O130        C131   1.304       .  A
C131        C450   1.519       .  S
O132       Zr141   2.401       .  S
O132        C134   1.281       .  A
O133       Zr164   2.496       .  S
O133        C134   1.301       .  A
C134        C421   1.519       .  S
O135       Zr138   2.418   1_554  S
O135        C137   1.285       .  A
O136       Zr933   2.488   1_545  S
O136        C137   1.298       .  A
C137        C370   1.509       .  S
Zr138       O139   2.435   1_556  S
Zr138       O140   2.435   1_556  S
Zr138       O168   2.348   1_556  S
Zr138       O170   2.375       .  S
Zr138       O912   2.370   1_545  S
Zr138       O913   2.351   1_546  S
O139        H182   0.990   1_554  S
O140        H181   0.989   1_554  S
O140        H185   0.990       .  S
Zr141       O142   2.435       .  S
Zr141       O143   2.434   1_556  S
Zr141       O145   2.357   1_556  S
Zr141       O144   2.361       .  S
Zr141       O169   2.371       .  S
Zr141       O171   2.374   1_556  S
O142        H183   0.988   1_556  S
O142        H186   0.989       .  S
O143        H176   0.990   1_554  S
O144       Zr164   2.393       .  S
O144       Zr906   2.370       .  S
O145       Zr165   2.384       .  S
O145       Zr906   2.351   1_554  S
O145        H172   0.965       .  S
O146       Zr158   2.429   1_554  S
O146        C148   1.285       .  A
O147       Zr933   2.478   1_545  S
O147        C148   1.300       .  A
C148        C386   1.495       .  S
O149       Zr161   2.409       .  S
O149        C151   1.283       .  A
O150       Zr164   2.505       .  S
O150        C151   1.301       .  A
C151        C466   1.527       .  S
O152       Zr161   2.424   1_554  S
O152        C154   1.285       .  A
O153       Zr165   2.476       .  S
O153        C154   1.297       .  A
C154        C405   1.514       .  S
O155       Zr158   2.445       .  S
O155        C157   1.289       .  A
O156       Zr932   2.480   1_545  S
O156        C157   1.298       .  A
C157        C434   1.501       .  S
Zr158       O159   2.433       .  S
Zr158       O160   2.434       .  S
Zr158       O170   2.368       .  S
Zr158       O168   2.381   1_556  S
Zr158       O934   2.365   1_546  S
Zr158       O935   2.353   1_545  S
O159        H179   0.989   1_556  S
O159        H184   0.988       .  S
O160        H180   0.990   1_556  S
Zr161       O162   2.434       .  S
Zr161       O163   2.434       .  S
Zr161       O167   2.370       .  S
Zr161       O166   2.364   1_556  S
Zr161       O171   2.360   1_556  S
Zr161       O169   2.359       .  S
O162        H178   0.990       .  S
O163        H177   0.990   1_556  S
O163        H187   0.990       .  S
Zr164       O895   2.516       .  S
Zr164       O924   2.480       .  S
Zr164       O167   2.394       .  S
Zr164       O169   2.414       .  S
Zr164       O938   2.407       .  S
Zr165       O904   2.488       .  S
Zr165       O915   2.478       .  S
Zr165       O166   2.401       .  S
Zr165       O171   2.402       .  S
Zr165       O936   2.397       .  S
O166       Zr926   2.365   1_554  S
O166        H174   0.965       .  S
O167       Zr926   2.353       .  S
O168       Zr933   2.397   1_545  S
O169        H173   0.966       .  S
O170       Zr932   2.407   1_545  S
O170        H175   0.966       .  S
C188        C354   1.578       .  S
C188        C469   1.591       .  S
C188        C562   1.629       .  S
C188        C741   1.637       .  S
O189       Zr201   2.377   1_655  S
O189        C191   1.275       .  A
O190       Zr995   2.444   1_545  S
O190        C191   1.292       .  A
C191        C485   1.449       .  S
O192       Zr204   2.364       .  S
O192        C194   1.269       .  A
O193       Zr996   2.454   1_545  S
O193        C194   1.294       .  A
C194        C277   1.476       .  S
O195       Zr204   2.357   1_655  S
O195        C197   1.271       .  A
O196       Zr995   2.472   1_545  S
O196        C197   1.295       .  A
C197        C338   1.460       .  S
O198       Zr201   2.390       .  S
O198        C200   1.279       .  A
O199       Zr996   2.438   1_545  S
O199        C200   1.286       .  A
C200        C261   1.498       .  S
Zr201       O202   2.434       .  S
Zr201       O203   2.438       .  S
Zr201       O207   2.369   1_455  S
Zr201       O208   2.351       .  S
Zr201       O999   2.347   1_545  S
Zr201      O1001   2.352   1_445  S
O202        H245   0.990   1_455  S
O203        H244   0.990   1_455  S
O203        H248   0.990       .  S
Zr204       O205   2.435       .  S
Zr204       O206   2.432   1_455  S
Zr204       O208   2.360       .  S
Zr204       O207   2.350   1_455  S
Zr204      O1000   2.347   1_445  S
Zr204      O1002   2.346   1_545  S
O205        H246   0.989       .  S
O205        H249   0.990   1_455  S
O206        H239   0.990   1_655  S
O207       Zr995   2.385   1_545  S
O208       Zr996   2.387   1_545  S
O208        H235   0.966       .  S
O209       Zr221   2.384       .  S
O209        C211   1.278       .  A
O210       Zr228   2.451       .  S
O210        C211   1.291       .  A
C211        C357   1.468       .  S
O212       Zr224   2.401   1_655  S
O212        C214   1.282       .  A
O213       Zr227   2.435       .  S
O213        C214   1.288       .  A
C214        C322   1.469       .  S
O215       Zr224   2.410       .  S
O215        C217   1.281       .  A
O216       Zr228   2.397       .  S
O216        C217   1.283       .  A
C217        C309   1.446       .  S
O218       Zr221   2.419   1_655  S
O218        C220   1.286       .  A
O219       Zr227   2.431       .  S
O219        C220   1.288       .  A
C220        C290   1.474       .  S
Zr221       O222   2.434       .  S
Zr221       O223   2.428       .  S
Zr221       O229   2.363       .  S
Zr221       O230   2.348   1_455  S
Zr221       O233   2.354   1_455  S
Zr221       O231   2.365       .  S
O222        H242   0.989       .  S
O222        H247   0.990       .  S
O223        H243   0.990       .  S
Zr224       O225   2.435       .  S
Zr224       O226   2.438       .  S
Zr224       O230   2.364   1_455  S
Zr224       O229   2.356       .  S
Zr224       O234   2.349       .  S
Zr224       O232   2.350   1_455  S
O225        H241   0.990       .  S
O226        H240   0.990       .  S
O226        H250   0.990       .  S
Zr227       O958   2.444       .  S
Zr227       O964   2.472       .  S
Zr227       O230   2.396       .  S
Zr227       O232   2.374       .  S
Zr227       O233   2.385       .  S
Zr227       O975   2.385       .  S
Zr228       O961   2.454       .  S
Zr228       O967   2.438       .  S
Zr228       O229   2.403       .  S
Zr228       O231   2.373       .  S
Zr228       O234   2.374       .  S
Zr228       O976   2.387       .  S
O229        H237   0.966       .  S
O231       Zr969   2.347       .  S
O232       Zr972   2.347   1_655  S
O232        H236   0.965       .  S
O233       Zr969   2.352   1_655  S
O233        H238   0.963       .  S
O234       Zr972   2.346       .  S
C251        C325   1.549       .  S
C251        C453   1.620       .  S
C251        C549   1.619       .  S
C251        C706   1.579       .  S
C252        C274   1.594       .  S
C252        C389   1.595       .  S
C252        C517   1.635       .  S
C252        C754   1.566       .  S
C253        C341   1.589       .  S
C253        C373   1.592       .  S
C253        C613   1.631       .  S
C253        C677   1.605       .  S
C254        C306   1.565       .  S
C254        C402   1.617       .  S
C254        C533   1.619       .  S
C254        C690   1.594       .  S
C255        C258   1.584       .  S
C255        C437   1.619       .  S
C255        C594   1.590       .  S
C255        C661   1.577       .  S
C256        C293   1.622       .  S
C256        C418   1.627       .  S
C256        C581   1.609       .  S
C256        C642   1.588       .  S
C257        C258   1.424       .  A
C257        C262   1.414       .  A
C257        H264   1.076       .  S
C258        C259   1.439       .  A
C259        C266   1.534       .  S
C259        C260   1.392       .  A
C260        C261   1.407       .  A
C260        H265   1.083       .  S
C261        C262   1.416       .  A
C262        C263   1.518       .  S
C263        F267   1.385       .  S
C263        F268   1.383       .  S
C263       F1037   1.381       .  S
C266        F270   1.382       .  S
C266        F271   1.365       .  S
C266        F272   1.387       .  S
F269       C1031   1.381       .  S
C273        C274   1.406       .  A
C273        C278   1.389       .  A
C273        H280   1.072       .  S
C274        C275   1.457       .  A
C275        C282   1.535       .  S
C275        C276   1.415       .  A
C276        C277   1.396       .  A
C276        H281   1.082       .  S
C277        C278   1.422       .  A
C278        C279   1.525       .  S
C279        F283   1.384       .  S
C279        F284   1.383       .  S
C279        F285   1.375       .  S
C282        F286   1.369       .  S
C282        F287   1.377       .  S
C282        F288   1.386       .  S
C289        C290   1.390       .  A
C289        C294   1.415       .  A
C289        H296   1.085       .  S
C290        C291   1.400       .  A
C291        C298   1.520       .  S
C291        C292   1.382       .  A
C292        C293   1.420       .  A
C292        H297   1.061       .  S
C293        C294   1.477       .  A
C294        C295   1.542       .  S
C295        F299   1.384       .  S
C295        F300   1.377       .  S
C295        F301   1.383       .  S
C298        F302   1.381       .  S
C298        F303   1.382       .  S
C298        F304   1.385       .  S
C305        C306   1.421       .  A
C305        C310   1.393       .  A
C305        H312   1.079       .  S
C306        C307   1.454       .  A
C307        C314   1.535       .  S
C307        C308   1.393       .  A
C308        C309   1.387       .  A
C308        H313   1.088       .  S
C309        C310   1.406       .  A
C310        C311   1.518       .  S
C311        F315   1.384       .  S
C311        F316   1.380       .  S
C311        F317   1.384       .  S
C314        F318   1.380       .  S
C314        F319   1.376       .  S
C314        F320   1.386       .  S
C321        C322   1.395       .  A
C321        C326   1.396       .  A
C321        H328   1.086       .  S
C322        C323   1.405       .  A
C323        C330   1.516       .  S
C323        C324   1.405       .  A
C324        C325   1.421       .  A
C324        H329   1.076       .  S
C325        C326   1.451       .  A
C326        C327   1.542       .  S
C327        F331   1.383       .  S
C327        F332   1.375       .  S
C327        F333   1.384       .  S
C330        F334   1.368       .  S
C330        F335   1.383       .  S
C330        F336   1.383       .  S
C337        C338   1.400       .  A
C337        C342   1.414       .  A
C337        H344   1.084       .  S
C338        C339   1.395       .  A
C339        C346   1.520       .  S
C339        C340   1.390       .  A
C340        C341   1.429       .  A
C340        H345   1.070       .  S
C341        C342   1.456       .  A
C342        C343   1.529       .  S
C343        F347   1.385       .  S
C343        F348   1.363       .  S
C343        F349   1.383       .  S
C346        F350   1.382       .  S
C346        F351   1.379       .  S
C346        F352   1.385       .  S
C353        C354   1.424       .  A
C353        C358   1.392       .  A
C353        H360   1.085       .  S
C354        C355   1.449       .  A
C355        C362   1.531       .  S
C355        C356   1.413       .  A
C356        C357   1.396       .  A
C356        H361   1.083       .  S
C357        C358   1.408       .  A
C358        C359   1.520       .  S
C359        F363   1.384       .  S
C359        F364   1.384       .  S
C359        F365   1.382       .  S
C362        F366   1.382       .  S
C362        F367   1.373       .  S
C362        F368   1.386       .  S
C369        C370   1.401       .  A
C369        C374   1.417       .  A
C369        H376   1.086       .  S
C370        C371   1.407       .  A
C371        C378   1.517       .  S
C371        C372   1.415       .  A
C372        C373   1.422       .  A
C372        H377   1.064       .  S
C373        C374   1.458       .  A
C374        C375   1.535       .  S
C375        F379   1.386       .  S
C375        F380   1.364       .  S
C375        F381   1.384       .  S
C378        F383   1.383       .  S
C378        F384   1.384       .  S
C378       F1150   1.380   1_545  S
F382       C1146   1.380       .  S
C385        C386   1.393       .  A
C385        C390   1.419       .  A
C385        H392   1.084       .  S
C386        C387   1.414       .  A
C387        C394   1.517       .  S
C387        C388   1.406       .  A
C388        C389   1.421       .  A
C388        H393   1.083       .  S
C389        C390   1.463       .  A
C390        C391   1.538       .  S
C391        F395   1.387       .  S
C391        F396   1.372       .  S
C391        F397   1.378       .  S
C394        F398   1.383       .  S
C394        F399   1.380       .  S
C394        F400   1.385       .  S
C401        C402   1.422       .  A
C401        C406   1.410       .  A
C401        H408   1.069       .  S
C402        C403   1.430       .  A
C403        C410   1.523       .  S
C403        C404   1.415       .  A
C404        C405   1.418       .  A
C404        H409   1.083       .  S
C405        C406   1.416       .  A
C406        C407   1.522       .  S
C407        F411   1.385       .  S
C407        F412   1.383       .  S
C407        F413   1.384       .  S
C410        F414   1.377       .  S
C410        F415   1.380       .  S
C410        F416   1.385       .  S
C417        C418   1.433       .  A
C417        C422   1.414       .  A
C417        H424   1.048       .  S
C418        C419   1.469       .  A
C419        C426   1.547       .  S
C419        C420   1.420       .  A
C420        C421   1.408       .  A
C420        H425   1.084       .  S
C421        C422   1.403       .  A
C422        C423   1.522       .  S
C423        F427   1.382       .  S
C423        F428   1.383       .  S
C423        F429   1.381       .  S
C426        F430   1.385       .  S
C426        F431   1.370       .  S
C426        F432   1.386       .  S
C433        C434   1.398       .  A
C433        C438   1.428       .  A
C433        H440   1.084       .  S
C434        C435   1.410       .  A
C435        C442   1.519       .  S
C435        C436   1.405       .  A
C436        C437   1.421       .  A
C436        H441   1.069       .  S
C437        C438   1.462       .  A
C438        C439   1.531       .  S
C439        F443   1.387       .  S
C439        F444   1.379       .  S
C439        F445   1.374       .  S
C442        F446   1.380       .  S
C442        F447   1.383       .  S
C442        F448   1.385       .  S
C449        C450   1.398       .  A
C449        C454   1.430       .  A
C449        H456   1.081       .  S
C450        C451   1.422       .  A
C451        C458   1.521       .  S
C451        C452   1.405       .  A
C452        C453   1.417       .  A
C452        H457   1.071       .  S
C453        C454   1.468       .  A
C454        C455   1.539       .  S
C455        F459   1.386       .  S
C455        F460   1.373       .  S
C455        F461   1.371       .  S
C458        F462   1.382       .  S
C458        F463   1.382       .  S
C458        F464   1.386       .  S
C465        C466   1.411       .  A
C465        C470   1.413       .  A
C465        H472   1.077       .  S
C466        C467   1.413       .  A
C467        C474   1.515       .  S
C467        C468   1.422       .  A
C468        C469   1.430       .  A
C468        H473   1.078       .  S
C469        C470   1.447       .  A
C470        C471   1.530       .  S
C471        F475   1.386       .  S
C471        F476   1.376       .  S
C471        F477   1.370       .  S
C474        F478   1.381       .  S
C474        F479   1.383       .  S
C474        F480   1.385       .  S
C481        C482   1.422       .  A
C481        C486   1.386       .  A
C481        H488   1.057       .  S
C482        C483   1.451       .  A
C483        C490   1.530       .  S
C483        C484   1.412       .  A
C484        C485   1.398       .  A
C484        H489   1.086       .  S
C485        C486   1.396       .  A
C486        C487   1.525       .  S
C487        F491   1.384       .  S
C487        F492   1.378       .  S
C487        F493   1.383       .  S
C490        F494   1.373       .  S
C490        F495   1.385       .  S
C490        F496   1.383       .  S
C497        C498   1.409       .  A
C497        C502   1.404       .  A
C497        H504   1.075       .  S
C498        C499   1.466       .  A
C499        C506   1.534       .  S
C499        C500   1.421       .  A
C500        C501   1.394       .  A
C500        H505   1.083       .  S
C501        C502   1.429       .  A
C502        C503   1.523       .  S
C503        F507   1.385       .  S
C503        F508   1.379       .  S
C503        F509   1.383       .  S
C506        F510   1.379       .  S
C506        F511   1.371       .  S
C506        F512   1.386       .  S
C513        C514   1.399       .  A
C513        C518   1.426       .  A
C513        H520   1.082       .  S
C514        C515   1.434       .  A
C515        C522   1.520       .  S
C515        C516   1.408       .  A
C516        C517   1.410       .  A
C516        H521   1.075       .  S
C517        C518   1.460       .  A
C518        C519   1.528       .  S
C519        F523   1.378       .  S
C519        F524   1.369       .  S
C519        F525   1.385       .  S
C522        F526   1.380       .  S
C522        F527   1.383       .  S
C522        F528   1.385       .  S
C529        C530   1.386       .  A
C529        C534   1.424       .  A
C529        H536   1.081       .  S
C530        C531   1.411       .  A
C531        C538   1.520       .  S
C531        C532   1.409       .  A
C532        C533   1.413       .  A
C532        H537   1.064       .  S
C533        C534   1.477       .  A
C534        C535   1.536       .  S
C535        F539   1.386       .  S
C535        F540   1.372       .  S
C535        F541   1.361       .  S
C538        F542   1.378       .  S
C538        F543   1.383       .  S
C538        F544   1.384       .  S
C545        C546   1.401       .  A
C545        C550   1.423       .  A
C545        H552   1.085       .  S
C546        C547   1.421       .  A
C547        C554   1.521       .  S
C547        C548   1.412       .  A
C548        C549   1.417       .  A
C548        H553   1.067       .  S
C549        C550   1.452       .  A
C550        C551   1.529       .  S
C551        F555   1.385       .  S
C551        F556   1.382       .  S
C551        F557   1.376       .  S
C554        F558   1.377       .  S
C554        F559   1.383       .  S
C554        F560   1.384       .  S
C561        C562   1.419       .  A
C561        C566   1.412       .  A
C561        H568   1.049       .  S
C562        C563   1.476       .  A
C563        C570   1.540       .  S
C563        C564   1.423       .  A
C564        C565   1.389       .  A
C564        H569   1.085       .  S
C565        C566   1.407       .  A
C566        C567   1.521       .  S
C567        F571   1.383       .  S
C567        F572   1.382       .  S
C567        F573   1.384       .  S
C570        F574   1.383       .  S
C570        F575   1.367       .  S
C570        F576   1.387       .  S
C577        C578   1.385       .  A
C577        C582   1.413       .  A
C577        H584   1.082       .  S
C578        C579   1.409       .  A
C579        C586   1.519       .  S
C579        C580   1.408       .  A
C580        C581   1.433       .  A
C580        H585   1.082       .  S
C581        C582   1.464       .  A
C582        C583   1.528       .  S
C583        F587   1.385       .  S
C583        F588   1.376       .  S
C583        F589   1.377       .  S
C586        F590   1.384       .  S
C586        F591   1.381       .  S
C586        F592   1.385       .  S
C593        C594   1.410       .  A
C593        C598   1.405       .  A
C593        H600   1.073       .  S
C594        C595   1.459       .  A
C595        C602   1.532       .  S
C595        C596   1.422       .  A
C596        C597   1.398       .  A
C596        H601   1.081       .  S
C597        C598   1.431       .  A
C598        C599   1.523       .  S
C599        F603   1.385       .  S
C599        F604   1.383       .  S
C599        F605   1.375       .  S
C602        F606   1.385       .  S
C602        F607   1.374       .  S
C602        F608   1.380       .  S
C609        C610   1.395       .  A
C609        C614   1.416       .  A
C609        H616   1.083       .  S
C610        C611   1.407       .  A
C611        C618   1.517       .  S
C611        C612   1.428       .  A
C612        C613   1.443       .  A
C612        H617   1.071       .  S
C613        C614   1.458       .  A
C614        C615   1.524       .  S
C615        F619   1.387       .  S
C615        F620   1.369       .  S
C615        F621   1.376       .  S
C618        F622   1.380       .  S
C618        F623   1.383       .  S
C618        F624   1.385       .  S
C625        C626   1.398       .  A
C625        C630   1.426       .  A
C625        H632   1.083       .  S
C626        C627   1.405       .  A
C627        C634   1.519       .  S
C627        C628   1.416       .  A
C628        C629   1.433       .  A
C628        H633   1.071       .  S
C629        C630   1.460       .  A
C630        C631   1.534       .  S
C631        F635   1.386       .  S
C631        F636   1.371       .  S
C631        F637   1.380       .  S
C634        F638   1.384       .  S
C634        F639   1.383       .  S
C634        F640   1.385       .  S
C641        C642   1.437       .  A
C641        C646   1.406       .  A
C641        H648   1.076       .  S
C642        C643   1.451       .  A
C643        C650   1.525       .  S
C643        C644   1.406       .  A
C644        C645   1.396       .  A
C644        H649   1.081       .  S
C645        C646   1.396       .  A
C646        C647   1.520       .  S
C647        F651   1.384       .  S
C647        F652   1.384       .  S
C647        F653   1.383       .  S
C650        F654   1.376       .  S
C650        F655   1.364       .  S
C650        F656   1.386       .  S
C657        C658   1.396       .  A
C657        C662   1.412       .  A
C657        H664   1.083       .  S
C658        C659   1.396       .  A
C659        C666   1.516       .  S
C659        C660   1.402       .  A
C660        C661   1.431       .  A
C660        H665   1.070       .  S
C661        C662   1.446       .  A
C662        C663   1.532       .  S
C663        F667   1.385       .  S
C663        F668   1.376       .  S
C663        F669   1.380       .  S
C666        F670   1.384       .  S
C666        F671   1.383       .  S
C666        F672   1.385       .  S
C673        C674   1.385       .  A
C673        C678   1.409       .  A
C673        H680   1.083       .  S
C674        C675   1.413       .  A
C675        C682   1.499       .  S
C675        C676   1.401       .  A
C676        C677   1.403       .  A
C676        H681   1.067       .  S
C677        C678   1.463       .  A
C678        C679   1.536       .  S
C679        F683   1.386       .  S
C679        F684   1.371       .  S
C679        F685   1.379       .  S
C682        F686   1.375       .  S
C682        F687   1.378       .  S
C682        F688   1.385       .  S
C689        C690   1.424       .  A
C689        C694   1.392       .  A
C689        H696   1.063       .  S
C690        C691   1.431       .  A
C691        C698   1.523       .  S
C691        C692   1.410       .  A
C692        C693   1.399       .  A
C692        H697   1.081       .  S
C693        C694   1.407       .  A
C694        C695   1.524       .  S
C695        F699   1.385       .  S
C695        F700   1.379       .  S
C695        F701   1.380       .  S
C698        F702   1.384       .  S
C698        F703   1.379       .  S
C698        F704   1.387       .  S
C705        C706   1.410       .  A
C705        C710   1.399       .  A
C705        H712   1.081       .  S
C706        C707   1.455       .  A
C707        C714   1.536       .  S
C707        C708   1.393       .  A
C708        C709   1.386       .  A
C708        H713   1.087       .  S
C709        C710   1.427       .  A
C710        C711   1.518       .  S
C711        F715   1.383       .  S
C711        F716   1.383       .  S
C711        F717   1.376       .  S
C714        F718   1.360       .  S
C714        F719   1.380       .  S
C714        F720   1.388       .  S
C721        C722   1.409       .  A
C721        C726   1.387       .  A
C721        H728   1.074       .  S
C722        C723   1.452       .  A
C723        C730   1.523       .  S
C723        C724   1.419       .  A
C724        C725   1.402       .  A
C724        H729   1.085       .  S
C725        C726   1.424       .  A
C726        C727   1.522       .  S
C727        F731   1.386       .  S
C727        F732   1.381       .  S
C727        F733   1.374       .  S
C730        F734   1.385       .  S
C730        F735   1.370       .  S
C730        F736   1.375       .  S
C737        C738   1.403       .  A
C737        C742   1.418       .  A
C737        H744   1.086       .  S
C738        C739   1.397       .  A
C739        C746   1.521       .  S
C739        C740   1.400       .  A
C740        C741   1.438       .  A
C740        H745   1.076       .  S
C741        C742   1.449       .  A
C742        C743   1.530       .  S
C743        F747   1.384       .  S
C743        F748   1.385       .  S
C743        F749   1.371       .  S
C746        F750   1.383       .  S
C746        F751   1.382       .  S
C746        F752   1.385       .  S
C753        C754   1.419       .  A
C753        C758   1.392       .  A
C753        H760   1.084       .  S
C754        C755   1.455       .  A
C755        C762   1.524       .  S
C755        C756   1.406       .  A
C756        C757   1.384       .  A
C756        H761   1.083       .  S
C757        C758   1.406       .  A
C758        C759   1.517       .  S
C759        F763   1.382       .  S
C759        F764   1.382       .  S
C759        F765   1.379       .  S
C762        F766   1.371       .  S
C762        F767   1.368       .  S
C762        F768   1.381       .  S
O769       Zr781   2.384       .  S
O769        C771   1.276       .  A
O770       Zr807   2.438       .  S
O770        C771   1.290       .  A
C771       C1525   1.452       .  S
O772       Zr784   2.399       .  S
O772        C774   1.277       .  A
O773       Zr808   2.474       .  S
O773        C774   1.297       .  A
C774       C1493   1.498       .  S
O775       Zr784   2.400       .  S
O775        C777   1.279       .  A
O776       Zr807   2.450       .  S
O776        C777   1.291       .  A
C777       C1426   1.467       .  S
O778       Zr781   2.410       .  S
O778        C780   1.280       .  A
O779       Zr808   2.466       .  S
O779        C780   1.295       .  A
C780       C1442   1.481       .  S
Zr781       O782   2.435       .  S
Zr781       O783   2.436       .  S
Zr781       O787   2.369       .  S
Zr781       O788   2.360       .  S
Zr781       O811   2.342       .  S
Zr781       O813   2.365       .  S
O782        H825   0.990       .  S
O783        H824   0.990       .  S
O783        H828   0.990       .  S
Zr784       O785   2.436       .  S
Zr784       O786   2.429       .  S
Zr784       O788   2.370       .  S
Zr784       O787   2.352       .  S
Zr784       O812   2.344       .  S
Zr784       O814   2.354       .  S
O785        H826   0.989       .  S
O785        H829   0.990       .  S
O786        H819   0.991       .  S
O787       Zr807   2.393       .  S
O788       Zr808   2.393       .  S
O788        H815   0.966       .  S
O789       Zr801   2.376       .  S
O789        C791   1.275       .  A
O790       Zr808   2.457       .  S
O790        C791   1.295       .  A
C791       C1477   1.472       .  S
O792       Zr804   2.404       .  S
O792        C794   1.281       .  A
O793       Zr807   2.470       .  S
O793        C794   1.296       .  A
C794       C1506   1.479       .  S
O795       Zr804   2.396       .  S
O795        C797   1.281       .  A
O796       Zr808   2.439       .  S
O796        C797   1.289       .  A
C797       C1413   1.478       .  S
O798       Zr801   2.396       .  S
O798        C800   1.276       .  A
O799       Zr807   2.438       .  S
O799        C800   1.288       .  A
C800       C1461   1.460       .  S
Zr801       O802   2.440       .  S
Zr801       O803   2.433       .  S
Zr801       O809   2.359       .  S
Zr801       O810   2.356       .  S
Zr801       O813   2.357       .  S
Zr801       O811   2.363       .  S
O802        H822   0.989       .  S
O802        H827   0.989       .  S
O803        H823   0.991       .  S
Zr804       O805   2.434       .  S
Zr804       O806   2.438       .  S
Zr804       O810   2.365       .  S
Zr804       O809   2.365       .  S
Zr804       O814   2.357       .  S
Zr804       O812   2.357       .  S
O805        H821   0.990       .  S
O806        H820   0.990       .  S
O806        H830   0.990       .  S
Zr807       O810   2.399       .  S
Zr807       O812   2.368       .  S
Zr807       O813   2.394       .  S
Zr808       O809   2.408       .  S
Zr808       O811   2.374       .  S
Zr808       O814   2.385       .  S
O809        H817   0.965       .  S
O812        H816   0.965       .  S
O813        H818   0.964       .  S
O831       Zr843   2.449   1_556  S
O831        C833   1.288       .  A
O832       Zr869   2.486   1_655  S
O832        C833   1.299       .  A
C833       C1394   1.504       .  S
O834       Zr846   2.432       .  S
O834        C836   1.286       .  A
O835       Zr870   2.507   1_655  S
O835        C836   1.304       .  A
C836       C1314   1.503       .  S
O837       Zr846   2.416   1_556  S
O837        C839   1.282       .  A
O838       Zr869   2.463   1_655  S
O838        C839   1.297       .  A
C839       C1346   1.486       .  S
O840       Zr843   2.418       .  S
O840        C842   1.286       .  A
O841       Zr870   2.513   1_655  S
O841        C842   1.303       .  A
C842       C1378   1.517       .  S
Zr843       O844   2.434       .  S
Zr843       O845   2.436       .  S
Zr843       O849   2.359   1_554  S
Zr843       O850   2.367       .  S
Zr843       O873   2.379   1_655  S
Zr843       O875   2.365   1_654  S
O844        H887   0.990   1_554  S
O845        H886   0.990   1_554  S
O845        H890   0.990       .  S
Zr846       O847   2.436   1_554  S
Zr846       O848   2.435       .  S
Zr846       O850   2.365       .  S
Zr846       O849   2.375   1_554  S
Zr846       O874   2.374   1_654  S
Zr846       O876   2.369   1_655  S
O847        H888   0.989   1_556  S
O847        H891   0.990   1_556  S
O848        H881   0.990   1_554  S
O849       Zr869   2.392   1_655  S
O850       Zr870   2.402   1_655  S
O850        H877   0.963       .  S
O851       Zr863   2.414       .  S
O851        C853   1.280       .  A
O852       Zr870   2.524       .  S
O852        C853   1.307       .  A
C853       C1282   1.526       .  S
O854       Zr866   2.449       .  S
O854        C856   1.288       .  A
O855       Zr869   2.469       .  S
O855        C856   1.295       .  A
C856       C1333   1.494       .  S
O857       Zr866   2.435   1_554  S
O857        C859   1.287       .  A
O858       Zr870   2.484       .  S
O858        C859   1.301       .  A
C859       C1298   1.502       .  S
O860       Zr863   2.397   1_556  S
O860        C862   1.276       .  A
O861       Zr869   2.504       .  S
O861        C862   1.304       .  A
C862       C1365   1.517       .  S
Zr863       O864   2.436   1_554  S
Zr863       O865   2.432       .  S
Zr863       O871   2.349       .  S
Zr863       O872   2.349   1_554  S
Zr863       O875   2.373   1_554  S
Zr863       O873   2.370       .  S
O864        H884   0.988   1_556  S
O864        H889   0.984       .  S
O865        H885   0.990       .  S
Zr866       O867   2.432       .  S
Zr866       O868   2.434       .  S
Zr866       O872   2.361       .  S
Zr866       O871   2.374   1_556  S
Zr866       O876   2.381   1_556  S
Zr866       O874   2.359       .  S
O867        H883   0.989       .  S
O868        H882   0.990   1_556  S
O868        H892   0.990       .  S
Zr869       O872   2.375       .  S
Zr869       O874   2.410       .  S
Zr869       O875   2.394       .  S
Zr870       O871   2.396       .  S
Zr870       O873   2.404       .  S
Zr870       O876   2.415       .  S
O871        H879   0.964       .  S
O874        H878   0.966       .  S
O875        H880   0.966       .  S
C893       C1250   1.587       .  S
C893       C1266   1.606       .  S
C893       C1397   1.621       .  S
C893       C1490   1.595       .  S
O894       Zr906   2.388       .  S
O894        C896   1.275       .  A
O895        C896   1.306       .  A
C896       C1269   1.513       .  S
O897       Zr909   2.427   1_554  S
O897        C899   1.284       .  A
O898       Zr933   2.504       .  S
O898        C899   1.304       .  A
C899       C1218   1.519       .  S
O900       Zr909   2.401       .  S
O900        C902   1.281       .  A
O901       Zr932   2.496       .  S
O901        C902   1.301       .  A
C902       C1189   1.519       .  S
O903       Zr906   2.418   1_554  S
O903        C905   1.285       .  A
O904        C905   1.298       .  A
C905       C1138   1.509       .  S
Zr906       O907   2.435   1_556  S
Zr906       O908   2.435   1_556  S
Zr906       O936   2.348   1_556  S
Zr906       O938   2.375       .  S
O907        H950   0.990   1_554  S
O908        H949   0.989   1_554  S
O908        H953   0.990       .  S
Zr909       O910   2.435       .  S
Zr909       O911   2.434   1_556  S
Zr909       O913   2.357   1_556  S
Zr909       O912   2.361       .  S
Zr909       O937   2.371       .  S
Zr909       O939   2.374   1_556  S
O910        H951   0.988   1_556  S
O910        H954   0.989       .  S
O911        H944   0.990   1_554  S
O912       Zr932   2.393       .  S
O913       Zr933   2.384       .  S
O913        H940   0.965       .  S
O914       Zr926   2.429   1_554  S
O914        C916   1.285       .  A
O915        C916   1.300       .  A
C916       C1154   1.495       .  S
O917       Zr929   2.409       .  S
O917        C919   1.283       .  A
O918       Zr932   2.505       .  S
O918        C919   1.301       .  A
C919       C1234   1.527       .  S
O920       Zr929   2.424   1_554  S
O920        C922   1.285       .  A
O921       Zr933   2.476       .  S
O921        C922   1.297       .  A
C922       C1173   1.514       .  S
O923       Zr926   2.445       .  S
O923        C925   1.289       .  A
O924        C925   1.298       .  A
C925       C1202   1.501       .  S
Zr926       O927   2.433       .  S
Zr926       O928   2.434       .  S
Zr926       O938   2.368       .  S
Zr926       O936   2.381   1_556  S
O927        H947   0.989   1_556  S
O927        H952   0.988       .  S
O928        H948   0.990   1_556  S
Zr929       O930   2.434       .  S
Zr929       O931   2.434       .  S
Zr929       O935   2.370       .  S
Zr929       O934   2.364   1_556  S
Zr929       O939   2.360   1_556  S
Zr929       O937   2.359       .  S
O930        H946   0.990       .  S
O931        H945   0.990   1_556  S
O931        H955   0.990       .  S
Zr932       O935   2.394       .  S
Zr932       O937   2.414       .  S
Zr933       O934   2.401       .  S
Zr933       O939   2.402       .  S
O934        H942   0.965       .  S
O937        H941   0.966       .  S
O938        H943   0.966       .  S
C956       C1122   1.578       .  S
C956       C1237   1.591       .  S
C956       C1330   1.629       .  S
C956       C1509   1.637       .  S
O957       Zr969   2.377   1_655  S
O957        C959   1.275       .  A
O958        C959   1.292       .  A
C959       C1253   1.449       .  S
O960       Zr972   2.364       .  S
O960        C962   1.269       .  A
O961        C962   1.294       .  A
C962       C1045   1.476       .  S
O963       Zr972   2.357   1_655  S
O963        C965   1.271       .  A
O964        C965   1.295       .  A
C965       C1106   1.460       .  S
O966       Zr969   2.390       .  S
O966        C968   1.279       .  A
O967        C968   1.286       .  A
C968       C1029   1.498       .  S
Zr969       O970   2.434       .  S
Zr969       O971   2.438       .  S
Zr969       O975   2.369   1_455  S
Zr969       O976   2.351       .  S
O970       H1013   0.990   1_455  S
O971       H1012   0.990   1_455  S
O971       H1016   0.990       .  S
Zr972       O973   2.435       .  S
Zr972       O974   2.432   1_455  S
Zr972       O976   2.360       .  S
Zr972       O975   2.350   1_455  S
O973       H1014   0.989       .  S
O973       H1017   0.990   1_455  S
O974       H1007   0.990   1_655  S
O976       H1003   0.966       .  S
O977       Zr989   2.384       .  S
O977        C979   1.278       .  A
O978       Zr996   2.451       .  S
O978        C979   1.291       .  A
C979       C1125   1.468       .  S
O980       Zr992   2.401   1_655  S
O980        C982   1.282       .  A
O981       Zr995   2.435       .  S
O981        C982   1.288       .  A
C982       C1090   1.469       .  S
O983       Zr992   2.410       .  S
O983        C985   1.281       .  A
O984       Zr996   2.397       .  S
O984        C985   1.283       .  A
C985       C1077   1.446       .  S
O986       Zr989   2.419   1_655  S
O986        C988   1.286       .  A
O987       Zr995   2.431       .  S
O987        C988   1.288       .  A
C988       C1058   1.474       .  S
Zr989       O990   2.434       .  S
Zr989       O991   2.428       .  S
Zr989       O997   2.363       .  S
Zr989       O998   2.348   1_455  S
Zr989      O1001   2.354   1_455  S
Zr989       O999   2.365       .  S
O990       H1010   0.989       .  S
O990       H1015   0.990       .  S
O991       H1011   0.990       .  S
Zr992       O993   2.435       .  S
Zr992       O994   2.438       .  S
Zr992       O998   2.364   1_455  S
Zr992       O997   2.356       .  S
Zr992      O1002   2.349       .  S
Zr992      O1000   2.350   1_455  S
O993       H1009   0.990       .  S
O994       H1008   0.990       .  S
O994       H1018   0.990       .  S
Zr995       O998   2.396       .  S
Zr995      O1000   2.374       .  S
Zr995      O1001   2.385       .  S
Zr996       O997   2.403       .  S
Zr996       O999   2.373       .  S
Zr996      O1002   2.374       .  S
O997       H1005   0.966       .  S
O1000      H1004   0.965       .  S
O1001      H1006   0.963       .  S
C1019      C1093   1.549       .  S
C1019      C1221   1.620       .  S
C1019      C1317   1.619       .  S
C1019      C1474   1.579       .  S
C1020      C1042   1.594       .  S
C1020      C1157   1.595       .  S
C1020      C1285   1.635       .  S
C1020      C1522   1.566       .  S
C1021      C1109   1.589       .  S
C1021      C1141   1.592       .  S
C1021      C1381   1.631       .  S
C1021      C1445   1.605       .  S
C1022      C1074   1.565       .  S
C1022      C1170   1.617       .  S
C1022      C1301   1.619       .  S
C1022      C1458   1.594       .  S
C1023      C1026   1.584       .  S
C1023      C1205   1.619       .  S
C1023      C1362   1.590       .  S
C1023      C1429   1.577       .  S
C1024      C1061   1.622       .  S
C1024      C1186   1.627       .  S
C1024      C1349   1.609       .  S
C1024      C1410   1.588       .  S
C1025      C1026   1.424       .  A
C1025      C1030   1.414       .  A
C1025      H1032   1.076       .  S
C1026      C1027   1.439       .  A
C1027      C1034   1.534       .  S
C1027      C1028   1.392       .  A
C1028      C1029   1.407       .  A
C1028      H1033   1.083       .  S
C1029      C1030   1.416       .  A
C1030      C1031   1.518       .  S
C1031      F1035   1.385       .  S
C1031      F1036   1.383       .  S
C1034      F1038   1.382       .  S
C1034      F1039   1.365       .  S
C1034      F1040   1.387       .  S
C1041      C1042   1.406       .  A
C1041      C1046   1.389       .  A
C1041      H1048   1.072       .  S
C1042      C1043   1.457       .  A
C1043      C1050   1.535       .  S
C1043      C1044   1.415       .  A
C1044      C1045   1.396       .  A
C1044      H1049   1.082       .  S
C1045      C1046   1.422       .  A
C1046      C1047   1.525       .  S
C1047      F1051   1.384       .  S
C1047      F1052   1.383       .  S
C1047      F1053   1.375       .  S
C1050      F1054   1.369       .  S
C1050      F1055   1.377       .  S
C1050      F1056   1.386       .  S
C1057      C1058   1.390       .  A
C1057      C1062   1.415       .  A
C1057      H1064   1.085       .  S
C1058      C1059   1.400       .  A
C1059      C1066   1.520       .  S
C1059      C1060   1.382       .  A
C1060      C1061   1.420       .  A
C1060      H1065   1.061       .  S
C1061      C1062   1.477       .  A
C1062      C1063   1.542       .  S
C1063      F1067   1.384       .  S
C1063      F1068   1.377       .  S
C1063      F1069   1.383       .  S
C1066      F1070   1.381       .  S
C1066      F1071   1.382       .  S
C1066      F1072   1.385       .  S
C1073      C1074   1.421       .  A
C1073      C1078   1.393       .  A
C1073      H1080   1.079       .  S
C1074      C1075   1.454       .  A
C1075      C1082   1.535       .  S
C1075      C1076   1.393       .  A
C1076      C1077   1.387       .  A
C1076      H1081   1.088       .  S
C1077      C1078   1.406       .  A
C1078      C1079   1.518       .  S
C1079      F1083   1.384       .  S
C1079      F1084   1.380       .  S
C1079      F1085   1.384       .  S
C1082      F1086   1.380       .  S
C1082      F1087   1.376       .  S
C1082      F1088   1.386       .  S
C1089      C1090   1.395       .  A
C1089      C1094   1.396       .  A
C1089      H1096   1.086       .  S
C1090      C1091   1.405       .  A
C1091      C1098   1.516       .  S
C1091      C1092   1.405       .  A
C1092      C1093   1.421       .  A
C1092      H1097   1.076       .  S
C1093      C1094   1.451       .  A
C1094      C1095   1.542       .  S
C1095      F1099   1.383       .  S
C1095      F1100   1.375       .  S
C1095      F1101   1.384       .  S
C1098      F1102   1.368       .  S
C1098      F1103   1.383       .  S
C1098      F1104   1.383       .  S
C1105      C1106   1.400       .  A
C1105      C1110   1.414       .  A
C1105      H1112   1.084       .  S
C1106      C1107   1.395       .  A
C1107      C1114   1.520       .  S
C1107      C1108   1.390       .  A
C1108      C1109   1.429       .  A
C1108      H1113   1.070       .  S
C1109      C1110   1.456       .  A
C1110      C1111   1.529       .  S
C1111      F1115   1.385       .  S
C1111      F1116   1.363       .  S
C1111      F1117   1.383       .  S
C1114      F1118   1.382       .  S
C1114      F1119   1.379       .  S
C1114      F1120   1.385       .  S
C1121      C1122   1.424       .  A
C1121      C1126   1.392       .  A
C1121      H1128   1.085       .  S
C1122      C1123   1.449       .  A
C1123      C1130   1.531       .  S
C1123      C1124   1.413       .  A
C1124      C1125   1.396       .  A
C1124      H1129   1.083       .  S
C1125      C1126   1.408       .  A
C1126      C1127   1.520       .  S
C1127      F1131   1.384       .  S
C1127      F1132   1.384       .  S
C1127      F1133   1.382       .  S
C1130      F1134   1.382       .  S
C1130      F1135   1.373       .  S
C1130      F1136   1.386       .  S
C1137      C1138   1.401       .  A
C1137      C1142   1.417       .  A
C1137      H1144   1.086       .  S
C1138      C1139   1.407       .  A
C1139      C1146   1.517       .  S
C1139      C1140   1.415       .  A
C1140      C1141   1.422       .  A
C1140      H1145   1.064       .  S
C1141      C1142   1.458       .  A
C1142      C1143   1.535       .  S
C1143      F1147   1.386       .  S
C1143      F1148   1.364       .  S
C1143      F1149   1.384       .  S
C1146      F1151   1.383       .  S
C1146      F1152   1.384       .  S
C1153      C1154   1.393       .  A
C1153      C1158   1.419       .  A
C1153      H1160   1.084       .  S
C1154      C1155   1.414       .  A
C1155      C1162   1.517       .  S
C1155      C1156   1.406       .  A
C1156      C1157   1.421       .  A
C1156      H1161   1.083       .  S
C1157      C1158   1.463       .  A
C1158      C1159   1.538       .  S
C1159      F1163   1.387       .  S
C1159      F1164   1.372       .  S
C1159      F1165   1.378       .  S
C1162      F1166   1.383       .  S
C1162      F1167   1.380       .  S
C1162      F1168   1.385       .  S
C1169      C1170   1.422       .  A
C1169      C1174   1.410       .  A
C1169      H1176   1.069       .  S
C1170      C1171   1.430       .  A
C1171      C1178   1.523       .  S
C1171      C1172   1.415       .  A
C1172      C1173   1.418       .  A
C1172      H1177   1.083       .  S
C1173      C1174   1.416       .  A
C1174      C1175   1.522       .  S
C1175      F1179   1.385       .  S
C1175      F1180   1.383       .  S
C1175      F1181   1.384       .  S
C1178      F1182   1.377       .  S
C1178      F1183   1.380       .  S
C1178      F1184   1.385       .  S
C1185      C1186   1.433       .  A
C1185      C1190   1.414       .  A
C1185      H1192   1.048       .  S
C1186      C1187   1.469       .  A
C1187      C1194   1.547       .  S
C1187      C1188   1.420       .  A
C1188      C1189   1.408       .  A
C1188      H1193   1.084       .  S
C1189      C1190   1.403       .  A
C1190      C1191   1.522       .  S
C1191      F1195   1.382       .  S
C1191      F1196   1.383       .  S
C1191      F1197   1.381       .  S
C1194      F1198   1.385       .  S
C1194      F1199   1.370       .  S
C1194      F1200   1.386       .  S
C1201      C1202   1.398       .  A
C1201      C1206   1.428       .  A
C1201      H1208   1.084       .  S
C1202      C1203   1.410       .  A
C1203      C1210   1.519       .  S
C1203      C1204   1.405       .  A
C1204      C1205   1.421       .  A
C1204      H1209   1.069       .  S
C1205      C1206   1.462       .  A
C1206      C1207   1.531       .  S
C1207      F1211   1.387       .  S
C1207      F1212   1.379       .  S
C1207      F1213   1.374       .  S
C1210      F1214   1.380       .  S
C1210      F1215   1.383       .  S
C1210      F1216   1.385       .  S
C1217      C1218   1.398       .  A
C1217      C1222   1.430       .  A
C1217      H1224   1.081       .  S
C1218      C1219   1.422       .  A
C1219      C1226   1.521       .  S
C1219      C1220   1.405       .  A
C1220      C1221   1.417       .  A
C1220      H1225   1.071       .  S
C1221      C1222   1.468       .  A
C1222      C1223   1.539       .  S
C1223      F1227   1.386       .  S
C1223      F1228   1.373       .  S
C1223      F1229   1.371       .  S
C1226      F1230   1.382       .  S
C1226      F1231   1.382       .  S
C1226      F1232   1.386       .  S
C1233      C1234   1.411       .  A
C1233      C1238   1.413       .  A
C1233      H1240   1.077       .  S
C1234      C1235   1.413       .  A
C1235      C1242   1.515       .  S
C1235      C1236   1.422       .  A
C1236      C1237   1.430       .  A
C1236      H1241   1.078       .  S
C1237      C1238   1.447       .  A
C1238      C1239   1.530       .  S
C1239      F1243   1.386       .  S
C1239      F1244   1.376       .  S
C1239      F1245   1.370       .  S
C1242      F1246   1.381       .  S
C1242      F1247   1.383       .  S
C1242      F1248   1.385       .  S
C1249      C1250   1.422       .  A
C1249      C1254   1.386       .  A
C1249      H1256   1.057       .  S
C1250      C1251   1.451       .  A
C1251      C1258   1.530       .  S
C1251      C1252   1.412       .  A
C1252      C1253   1.398       .  A
C1252      H1257   1.086       .  S
C1253      C1254   1.396       .  A
C1254      C1255   1.525       .  S
C1255      F1259   1.384       .  S
C1255      F1260   1.378       .  S
C1255      F1261   1.383       .  S
C1258      F1262   1.373       .  S
C1258      F1263   1.385       .  S
C1258      F1264   1.383       .  S
C1265      C1266   1.409       .  A
C1265      C1270   1.404       .  A
C1265      H1272   1.075       .  S
C1266      C1267   1.466       .  A
C1267      C1274   1.534       .  S
C1267      C1268   1.421       .  A
C1268      C1269   1.394       .  A
C1268      H1273   1.083       .  S
C1269      C1270   1.429       .  A
C1270      C1271   1.523       .  S
C1271      F1275   1.385       .  S
C1271      F1276   1.379       .  S
C1271      F1277   1.383       .  S
C1274      F1278   1.379       .  S
C1274      F1279   1.371       .  S
C1274      F1280   1.386       .  S
C1281      C1282   1.399       .  A
C1281      C1286   1.426       .  A
C1281      H1288   1.082       .  S
C1282      C1283   1.434       .  A
C1283      C1290   1.520       .  S
C1283      C1284   1.408       .  A
C1284      C1285   1.410       .  A
C1284      H1289   1.075       .  S
C1285      C1286   1.460       .  A
C1286      C1287   1.528       .  S
C1287      F1291   1.378       .  S
C1287      F1292   1.369       .  S
C1287      F1293   1.385       .  S
C1290      F1294   1.380       .  S
C1290      F1295   1.383       .  S
C1290      F1296   1.385       .  S
C1297      C1298   1.386       .  A
C1297      C1302   1.424       .  A
C1297      H1304   1.081       .  S
C1298      C1299   1.411       .  A
C1299      C1306   1.520       .  S
C1299      C1300   1.409       .  A
C1300      C1301   1.413       .  A
C1300      H1305   1.064       .  S
C1301      C1302   1.477       .  A
C1302      C1303   1.536       .  S
C1303      F1307   1.386       .  S
C1303      F1308   1.372       .  S
C1303      F1309   1.361       .  S
C1306      F1310   1.378       .  S
C1306      F1311   1.383       .  S
C1306      F1312   1.384       .  S
C1313      C1314   1.401       .  A
C1313      C1318   1.423       .  A
C1313      H1320   1.085       .  S
C1314      C1315   1.421       .  A
C1315      C1322   1.521       .  S
C1315      C1316   1.412       .  A
C1316      C1317   1.417       .  A
C1316      H1321   1.067       .  S
C1317      C1318   1.452       .  A
C1318      C1319   1.529       .  S
C1319      F1323   1.385       .  S
C1319      F1324   1.382       .  S
C1319      F1325   1.376       .  S
C1322      F1326   1.377       .  S
C1322      F1327   1.383       .  S
C1322      F1328   1.384       .  S
C1329      C1330   1.419       .  A
C1329      C1334   1.412       .  A
C1329      H1336   1.049       .  S
C1330      C1331   1.476       .  A
C1331      C1338   1.540       .  S
C1331      C1332   1.423       .  A
C1332      C1333   1.389       .  A
C1332      H1337   1.085       .  S
C1333      C1334   1.407       .  A
C1334      C1335   1.521       .  S
C1335      F1339   1.383       .  S
C1335      F1340   1.382       .  S
C1335      F1341   1.384       .  S
C1338      F1342   1.383       .  S
C1338      F1343   1.367       .  S
C1338      F1344   1.387       .  S
C1345      C1346   1.385       .  A
C1345      C1350   1.413       .  A
C1345      H1352   1.082       .  S
C1346      C1347   1.409       .  A
C1347      C1354   1.519       .  S
C1347      C1348   1.408       .  A
C1348      C1349   1.433       .  A
C1348      H1353   1.082       .  S
C1349      C1350   1.464       .  A
C1350      C1351   1.528       .  S
C1351      F1355   1.385       .  S
C1351      F1356   1.376       .  S
C1351      F1357   1.377       .  S
C1354      F1358   1.384       .  S
C1354      F1359   1.381       .  S
C1354      F1360   1.385       .  S
C1361      C1362   1.410       .  A
C1361      C1366   1.405       .  A
C1361      H1368   1.073       .  S
C1362      C1363   1.459       .  A
C1363      C1370   1.532       .  S
C1363      C1364   1.422       .  A
C1364      C1365   1.398       .  A
C1364      H1369   1.081       .  S
C1365      C1366   1.431       .  A
C1366      C1367   1.523       .  S
C1367      F1371   1.385       .  S
C1367      F1372   1.383       .  S
C1367      F1373   1.375       .  S
C1370      F1374   1.385       .  S
C1370      F1375   1.374       .  S
C1370      F1376   1.380       .  S
C1377      C1378   1.395       .  A
C1377      C1382   1.416       .  A
C1377      H1384   1.083       .  S
C1378      C1379   1.407       .  A
C1379      C1386   1.517       .  S
C1379      C1380   1.428       .  A
C1380      C1381   1.443       .  A
C1380      H1385   1.071       .  S
C1381      C1382   1.458       .  A
C1382      C1383   1.524       .  S
C1383      F1387   1.387       .  S
C1383      F1388   1.369       .  S
C1383      F1389   1.376       .  S
C1386      F1390   1.380       .  S
C1386      F1391   1.383       .  S
C1386      F1392   1.385       .  S
C1393      C1394   1.398       .  A
C1393      C1398   1.426       .  A
C1393      H1400   1.083       .  S
C1394      C1395   1.405       .  A
C1395      C1402   1.519       .  S
C1395      C1396   1.416       .  A
C1396      C1397   1.433       .  A
C1396      H1401   1.071       .  S
C1397      C1398   1.460       .  A
C1398      C1399   1.534       .  S
C1399      F1403   1.386       .  S
C1399      F1404   1.371       .  S
C1399      F1405   1.380       .  S
C1402      F1406   1.384       .  S
C1402      F1407   1.383       .  S
C1402      F1408   1.385       .  S
C1409      C1410   1.437       .  A
C1409      C1414   1.406       .  A
C1409      H1416   1.076       .  S
C1410      C1411   1.451       .  A
C1411      C1418   1.525       .  S
C1411      C1412   1.406       .  A
C1412      C1413   1.396       .  A
C1412      H1417   1.081       .  S
C1413      C1414   1.396       .  A
C1414      C1415   1.520       .  S
C1415      F1419   1.384       .  S
C1415      F1420   1.384       .  S
C1415      F1421   1.383       .  S
C1418      F1422   1.376       .  S
C1418      F1423   1.364       .  S
C1418      F1424   1.386       .  S
C1425      C1426   1.396       .  A
C1425      C1430   1.412       .  A
C1425      H1432   1.083       .  S
C1426      C1427   1.396       .  A
C1427      C1434   1.516       .  S
C1427      C1428   1.402       .  A
C1428      C1429   1.431       .  A
C1428      H1433   1.070       .  S
C1429      C1430   1.446       .  A
C1430      C1431   1.532       .  S
C1431      F1435   1.385       .  S
C1431      F1436   1.376       .  S
C1431      F1437   1.380       .  S
C1434      F1438   1.384       .  S
C1434      F1439   1.383       .  S
C1434      F1440   1.385       .  S
C1441      C1442   1.385       .  A
C1441      C1446   1.409       .  A
C1441      H1448   1.083       .  S
C1442      C1443   1.413       .  A
C1443      C1450   1.499       .  S
C1443      C1444   1.401       .  A
C1444      C1445   1.403       .  A
C1444      H1449   1.067       .  S
C1445      C1446   1.463       .  A
C1446      C1447   1.536       .  S
C1447      F1451   1.386       .  S
C1447      F1452   1.371       .  S
C1447      F1453   1.379       .  S
C1450      F1454   1.375       .  S
C1450      F1455   1.378       .  S
C1450      F1456   1.385       .  S
C1457      C1458   1.424       .  A
C1457      C1462   1.392       .  A
C1457      H1464   1.063       .  S
C1458      C1459   1.431       .  A
C1459      C1466   1.523       .  S
C1459      C1460   1.410       .  A
C1460      C1461   1.399       .  A
C1460      H1465   1.081       .  S
C1461      C1462   1.407       .  A
C1462      C1463   1.524       .  S
C1463      F1467   1.385       .  S
C1463      F1468   1.379       .  S
C1463      F1469   1.380       .  S
C1466      F1470   1.384       .  S
C1466      F1471   1.379       .  S
C1466      F1472   1.387       .  S
C1473      C1474   1.410       .  A
C1473      C1478   1.399       .  A
C1473      H1480   1.081       .  S
C1474      C1475   1.455       .  A
C1475      C1482   1.536       .  S
C1475      C1476   1.393       .  A
C1476      C1477   1.386       .  A
C1476      H1481   1.087       .  S
C1477      C1478   1.427       .  A
C1478      C1479   1.518       .  S
C1479      F1483   1.383       .  S
C1479      F1484   1.383       .  S
C1479      F1485   1.376       .  S
C1482      F1486   1.360       .  S
C1482      F1487   1.380       .  S
C1482      F1488   1.388       .  S
C1489      C1490   1.409       .  A
C1489      C1494   1.387       .  A
C1489      H1496   1.074       .  S
C1490      C1491   1.452       .  A
C1491      C1498   1.523       .  S
C1491      C1492   1.419       .  A
C1492      C1493   1.402       .  A
C1492      H1497   1.085       .  S
C1493      C1494   1.424       .  A
C1494      C1495   1.522       .  S
C1495      F1499   1.386       .  S
C1495      F1500   1.381       .  S
C1495      F1501   1.374       .  S
C1498      F1502   1.385       .  S
C1498      F1503   1.370       .  S
C1498      F1504   1.375       .  S
C1505      C1506   1.403       .  A
C1505      C1510   1.418       .  A
C1505      H1512   1.086       .  S
C1506      C1507   1.397       .  A
C1507      C1514   1.521       .  S
C1507      C1508   1.400       .  A
C1508      C1509   1.438       .  A
C1508      H1513   1.076       .  S
C1509      C1510   1.449       .  A
C1510      C1511   1.530       .  S
C1511      F1515   1.384       .  S
C1511      F1516   1.385       .  S
C1511      F1517   1.371       .  S
C1514      F1518   1.383       .  S
C1514      F1519   1.382       .  S
C1514      F1520   1.385       .  S
C1521      C1522   1.419       .  A
C1521      C1526   1.392       .  A
C1521      H1528   1.084       .  S
C1522      C1523   1.455       .  A
C1523      C1530   1.524       .  S
C1523      C1524   1.406       .  A
C1524      C1525   1.384       .  A
C1524      H1529   1.083       .  S
C1525      C1526   1.406       .  A
C1526      C1527   1.517       .  S
C1527      F1531   1.382       .  S
C1527      F1532   1.382       .  S
C1527      F1533   1.379       .  S
C1530      F1534   1.371       .  S
C1530      F1535   1.368       .  S
C1530      F1536   1.381       .  S
