geometry optimzed in LAMMPS
_audit_creation_date              2020-11-30 
_audit_creation_method            'lammps2cif' 
_symmetry_space_group_name_H-M    'P1' 
_symmetry_Int_Tables_number       1 
_symmetry_cell_setting            triclinic 
loop_ 
_symmetry_equiv_pos_as_xyz 
  x,y,z 
_cell_length_a                    52.85925364 
_cell_length_b                    52.70128431987093 
_cell_length_c                    114.22092908279275 
_cell_angle_alpha                 89.86807682938385 
_cell_angle_beta                  90.3505063265145 
_cell_angle_gamma                 120.1184515330846 
loop_ 
_atom_site_label 
_atom_site_type_symbol 
_atom_site_fract_x 
_atom_site_fract_y 
_atom_site_fract_z 
_atom_site_charge 
N1          N  0.11006135  0.47872388  0.52888932    -0.03300
C2          C  0.10294484  0.49456038  0.53620365    -0.00700
C3          C  0.12483981  0.50932786  0.54440088    -0.23600
C4          C  0.14617729  0.50256935  0.54216662    -0.23800
C5          C  0.13663832  0.48371915  0.53269418    -0.00800
H6          H  0.12499928  0.52323815  0.55139174     0.12900
H7          H  0.16596373  0.50960466  0.54723902     0.13000
N8          N  0.89036095  0.59209182  0.44647738    -0.03300
C9          C  0.90433804  0.58275279  0.43921317    -0.00700
C10         C  0.90386654  0.59156748  0.42785360    -0.23600
C11         C  0.88900903  0.60668553  0.42803123    -0.23800
C12         C  0.88079724  0.60656351  0.43950237    -0.00800
H13         H  0.91192975  0.58603260  0.42015167     0.12900
H14         H  0.88316902  0.61516550  0.42048710     0.13000
O15         O  0.94986890  0.64908101  0.55742069    -0.85200
O16         O  0.96761834  0.62611420  0.57449632    -0.82300
C17         C  0.99321541  0.63197075  0.57170088     0.98300
O18         O  0.01484758  0.65727925  0.57326671    -0.82300
O19         O  0.04516041  0.71720059  0.57181639    -0.84900
C20         C  0.04403413  0.72393111  0.56123580     1.02800
O21         O  0.01975286  0.71765270  0.55664771    -0.77700
O22         O  0.95960095  0.69381119  0.55389140    -0.77900
C23         C  0.95065118  0.66785311  0.55041134     1.02700
O24         O  0.92558463  0.67218967  0.57453566    -0.85200
O25         O  0.94700132  0.65258747  0.59181204    -0.82300
C26         C  0.96510214  0.65193596  0.59881919     0.98300
O27         O  0.99077921  0.65984424  0.59545420    -0.82300
O28         O  0.01746823  0.72058441  0.59276388    -0.84900
C29         C  0.02557923  0.74517687  0.58806244     1.02700
O30         O  0.01881254  0.74658761  0.57752396    -0.77700
O31         O  0.95876827  0.71872046  0.57631721    -0.77900
C32         C  0.93269387  0.69819348  0.57746899     1.02700
Cr33       Cr  0.95020877  0.65260636  0.57459971     1.93700
Cr34       Cr  0.01449450  0.68834065  0.58272531     1.93200
Cr35       Cr  0.98864210  0.71659945  0.56670719     1.39100
O36         O  0.98440835  0.68574921  0.57465993    -1.23000
N37         N  0.22280919  0.24649087  0.11097547    -0.03300
C38         C  0.23625538  0.23842753  0.10287994    -0.00700
C39         C  0.22115725  0.23172479  0.09236282    -0.23600
C40         C  0.19762430  0.23556030  0.09397924    -0.23800
C41         C  0.19912242  0.24467809  0.10541056    -0.00800
H42         H  0.22608033  0.22369143  0.08448665     0.12900
H43         H  0.18121983  0.23221792  0.08749335     0.13000
N44         N  0.41216845  0.10634004  0.20248699    -0.03300
C45         C  0.40083272  0.11596278  0.21089997    -0.00700
C46         C  0.41098963  0.11378286  0.22184355    -0.23600
C47         C  0.42910316  0.10252559  0.22018663    -0.23800
C48         C  0.42948728  0.09818373  0.20830542    -0.00800
H49         H  0.40670548  0.12085357  0.23011321     0.12900
H50         H  0.44121217  0.09849516  0.22689274     0.13000
O51         O  0.33660182  0.07448903  0.07293076    -0.85200
O52         O  0.35425638  0.05267317  0.09067909    -0.82300
C53         C  0.35249840  0.03431761  0.09815375     0.98300
O54         O  0.34287192  0.00777924  0.09523924    -0.82300
O55         O  0.28357513  0.98343629  0.09190757    -0.84900
C56         C  0.25933838  0.97720360  0.08737305     1.02800
O57         O  0.25811575  0.98362510  0.07674809    -0.77700
O58         O  0.28983023  0.04342170  0.07516980    -0.77900
C59         C  0.31138731  0.06895606  0.07621557     1.02700
O60         O  0.35649629  0.04505133  0.05660899    -0.85200
O61         O  0.37809634  0.02781551  0.07427638    -0.82300
C62         C  0.37052417  0.00166445  0.07144785     0.98300
O63         O  0.34462725  0.98136219  0.07303337    -0.82300
O64         O  0.28533206  0.95358963  0.07114485    -0.84900
C65         C  0.27924587  0.95527799  0.06050270     1.02700
O66         O  0.28625235  0.97981734  0.05601921    -0.77700
O67         O  0.31368309  0.03990061  0.05273720    -0.77900
C68         C  0.33869797  0.04524935  0.04935505     1.02700
Cr69       Cr  0.35367535  0.04751059  0.07364025     1.93700
Cr70       Cr  0.31470697  0.98406309  0.08221866     1.93200
Cr71       Cr  0.28942311  0.01211942  0.06578500     1.39100
O72         O  0.31928441  0.01457892  0.07393666    -1.23000
O73         O  0.28402408  0.30879140  0.22234065    -0.85200
O74         O  0.30166365  0.28887795  0.24090275    -0.82300
C75         C  0.32632674  0.29319101  0.23752270     0.98300
O76         O  0.34829425  0.31864208  0.23784580    -0.82300
O77         O  0.38047852  0.37791453  0.23516866    -0.84900
C78         C  0.37934633  0.38331009  0.22444506     1.02800
O79         O  0.35552269  0.37848044  0.21986666    -0.77700
O80         O  0.29557893  0.35318869  0.21687643    -0.77900
C81         C  0.28576439  0.32636324  0.21447283     1.02700
O82         O  0.26084457  0.33549087  0.23807285    -0.85200
O83         O  0.28290475  0.31999095  0.25637761    -0.82300
C84         C  0.30115023  0.32024795  0.26355498     0.98300
O85         O  0.32626106  0.32621462  0.26007044    -0.82300
O86         O  0.35493100  0.38613669  0.25563308    -0.84900
C87         C  0.36108394  0.40983607  0.25052723     1.02700
O88         O  0.35361625  0.40968179  0.23994801    -0.77700
O89         O  0.29394869  0.38223923  0.23825308    -0.77900
C90         C  0.26808571  0.36194596  0.24004207     1.02700
Cr91       Cr  0.28516644  0.31596549  0.23933006     1.93700
Cr92       Cr  0.34986743  0.35176669  0.24655944     1.93200
Cr93       Cr  0.32406925  0.37834161  0.22945354     1.39100
O94         O  0.31968547  0.34878766  0.23844052    -1.23000
N95         N  0.21915736  0.25348277  0.36575873    -0.03300
C96         C  0.21268729  0.26794048  0.37396288    -0.00700
C97         C  0.22139819  0.26413754  0.38495119    -0.23600
C98         C  0.23380769  0.24694038  0.38350550    -0.23800
C99         C  0.23227051  0.24081471  0.37169158    -0.00800
H100        H  0.21749687  0.27155159  0.39321587     0.12900
H101        H  0.24176561  0.23856092  0.39039079     0.13000
N102        N  0.08935378  0.44992981  0.28171758    -0.03300
C103        C  0.09829349  0.43786282  0.27328959    -0.00700
C104        C  0.09762548  0.44933442  0.26243353    -0.23600
C105        C  0.08812761  0.46888883  0.26414291    -0.23800
C106        C  0.08320630  0.46885858  0.27596758    -0.00800
H107        H  0.10445982  0.44481114  0.25416234     0.12900
H108        H  0.08532647  0.48195345  0.25749347     0.13000
O109        O  0.03451103  0.36468931  0.39798953    -0.85200
O110        O  0.00657820  0.39363122  0.39068629    -0.82300
C111        C  0.99108657  0.37652074  0.38255809     0.98300
O112        O  0.96800470  0.35305796  0.38506044    -0.82300
O113        O  0.93389426  0.30127474  0.39638979    -0.84900
C114        C  0.94652569  0.28630112  0.39560519     1.02800
O115        O  0.97004483  0.29392372  0.40111124    -0.77700
O116        O  0.02346176  0.33046070  0.41113094    -0.77900
C117        C  0.03830613  0.34487486  0.40234906     1.02700
O118        O  0.03139028  0.37963126  0.42204905    -0.85200
O119        O  0.99776462  0.40295706  0.41479702    -0.82300
C120        C  0.97525682  0.40339156  0.41137939     0.98300
O121        O  0.95797125  0.38475102  0.40394382    -0.82300
O122        O  0.92708195  0.33215842  0.41567786    -0.84900
C123        C  0.92290923  0.30998682  0.42149513     1.02700
O124        O  0.94070694  0.30063945  0.42074185    -0.77700
O125        O  0.99387060  0.34194386  0.43007736    -0.77900
C126        C  0.01787917  0.36562377  0.43112437     1.02700
Cr127      Cr  0.01493953  0.38255163  0.40647549     1.93700
Cr128      Cr  0.94941883  0.34344800  0.40077342     1.93200
Cr129      Cr  0.98207711  0.31915047  0.41521449     1.39100
O130        O  0.98195104  0.34834771  0.40753330    -1.23000
N131        N  0.53760578  0.90349475  0.02955420    -0.03300
C132        C  0.52259517  0.91187148  0.03672782    -0.00700
C133        C  0.51072896  0.89268489  0.04600612    -0.23600
C134        C  0.51858538  0.87175634  0.04462969    -0.23800
C135        C  0.53511523  0.87883785  0.03456370    -0.00800
H136        H  0.49750731  0.89371799  0.05298222     0.12900
H137        H  0.51334903  0.85361800  0.05048431     0.13000
N138        N  0.42767429  0.12754730  0.94850350    -0.03300
C139        C  0.43474200  0.11309004  0.94046568    -0.00700
C140        C  0.43204566  0.12127360  0.92923584    -0.23600
C141        C  0.42310271  0.14146802  0.93027813    -0.23800
C142        C  0.42059787  0.14497619  0.94210282    -0.00800
H143        H  0.43732116  0.11426517  0.92116893     0.12900
H144        H  0.41954714  0.15300379  0.92318781     0.13000
O145        O  0.61356507  0.00562880  0.89042490    -0.85200
O146        O  0.64157720  0.97601135  0.89671265    -0.82300
C147        C  0.66151933  0.97175060  0.90059592     0.98300
O148        O  0.67615994  0.98553913  0.90958578    -0.82300
O149        O  0.71367686  0.04049475  0.90039023    -0.84900
C150        C  0.72157130  0.06506360  0.89566395     1.02800
O151        O  0.70647406  0.07734848  0.89699431    -0.77700
O152        O  0.65502223  0.04329823  0.88506002    -0.77900
C153        C  0.63092251  0.02098987  0.88239160     1.02700
O154        O  0.60524276  0.01317645  0.91496912    -0.85200
O155        O  0.62739212  0.97751727  0.92098311    -0.82300
C156        C  0.64132764  0.99042828  0.93018526     0.98300
O157        O  0.66561317  0.01388199  0.92937226    -0.82300
O158        O  0.70665280  0.06791654  0.92081405    -0.84900
C159        C  0.69696643  0.08540161  0.92207405     1.02700
O160        O  0.67490714  0.08168854  0.91628529    -0.77700
O161        O  0.62318786  0.05219021  0.90381035    -0.77900
C162        C  0.60552140  0.03620954  0.91168675     1.02700
Cr163      Cr  0.62451945  0.99550840  0.90589499     1.93700
Cr164      Cr  0.68821286  0.02688749  0.91451616     1.93200
Cr165      Cr  0.66430369  0.06099720  0.90097251     1.39100
O166        O  0.65911495  0.02792542  0.90718148    -1.23000
N167        N  0.87955389  0.57571740  0.70022799    -0.03300
C168        C  0.87002347  0.58679205  0.70883197    -0.00700
C169        C  0.86834513  0.57319911  0.71940276    -0.23600
C170        C  0.87680628  0.55299705  0.71736787    -0.23800
C171        C  0.88359289  0.55492513  0.70564583    -0.00800
H172        H  0.86045991  0.57666956  0.72762636     0.12900
H173        H  0.87755353  0.53811691  0.72372116     0.13000
N174        N  0.73778304  0.77170869  0.61204901    -0.03300
C175        C  0.74506372  0.75630846  0.60457613    -0.00700
C176        C  0.74019571  0.76127522  0.59311316    -0.23600
C177        C  0.72966661  0.78033794  0.59345113    -0.23800
C178        C  0.72840267  0.78641533  0.60510211    -0.00800
H179        H  0.74526921  0.75311747  0.58531075     0.12900
H180        H  0.72426150  0.78945448  0.58599231     0.13000
N181        N  0.56754010  0.92384396  0.78069755    -0.03300
C182        C  0.57690746  0.90862023  0.77414586    -0.00700
C183        C  0.56896725  0.90781939  0.76255855    -0.23600
C184        C  0.55424617  0.92296662  0.76183442    -0.23800
C185        C  0.55358363  0.93255892  0.77302354    -0.00800
H186        H  0.57310215  0.89693133  0.75542274     0.12900
H187        H  0.54419037  0.92581245  0.75403954     0.13000
N188        N  0.77317237  0.81001622  0.86203218    -0.03300
C189        C  0.76836592  0.82896427  0.86841903    -0.00700
C190        C  0.79024905  0.84328386  0.87665069    -0.23600
C191        C  0.80927772  0.83300411  0.87538250    -0.23800
C192        C  0.79835687  0.81260694  0.86644169    -0.00800
H193        H  0.79171434  0.85896209  0.88311237     0.12900
H194        H  0.82826776  0.83868205  0.88079613     0.13000
O195        O  0.70988184  0.69589527  0.74245375    -0.85200
O196        O  0.68894787  0.71250865  0.72395999    -0.82300
C197        C  0.67103563  0.71147288  0.71639833     0.98300
O198        O  0.64502513  0.70371636  0.71932956    -0.82300
O199        O  0.62055514  0.64347310  0.72177922    -0.84900
C200        C  0.61438386  0.61911248  0.72624397     1.02800
O201        O  0.62002291  0.61767218  0.73695218    -0.77700
O202        O  0.67978242  0.64919439  0.73918138    -0.77900
C203        C  0.70529352  0.67108988  0.73896936     1.02700
O204        O  0.67986959  0.71542404  0.75807728    -0.85200
O205        O  0.66363709  0.73714491  0.73973759    -0.82300
C206        C  0.63779887  0.72976701  0.74275707     0.98300
O207        O  0.61744066  0.70369565  0.74132476    -0.82300
O208        O  0.58953808  0.64367175  0.74224554    -0.84900
C209        C  0.59049599  0.63748951  0.75292634     1.02700
O210        O  0.61472341  0.64476323  0.75778493    -0.77700
O211        O  0.67478572  0.67225324  0.76149183    -0.77900
C212        C  0.68081522  0.69744279  0.76507153     1.02700
Cr213      Cr  0.68315117  0.71274060  0.74098864     1.93700
Cr214      Cr  0.62050636  0.67420367  0.73178006     1.93200
Cr215      Cr  0.64767988  0.64829951  0.74828243     1.39100
O216        O  0.65043339  0.67839164  0.74032817    -1.23000
N217        N  0.31299320  0.46548398  0.78142373    -0.03300
C218        C  0.29050467  0.46439233  0.77517207    -0.00700
C219        C  0.30083612  0.48269684  0.76556718    -0.23600
C220        C  0.33072750  0.49580009  0.76590296    -0.23800
C221        C  0.33764828  0.48498051  0.77567824    -0.00800
H222        H  0.28794255  0.48608646  0.75901810     0.12900
H223        H  0.34588285  0.51177504  0.75975356     0.13000
N224        N  0.99358752  0.21333538  0.85825080    -0.03300
C225        C  0.02002758  0.22015039  0.86290169    -0.00700
C226        C  0.01754826  0.19722201  0.86964017    -0.23600
C227        C  0.98878312  0.17552384  0.86919079    -0.23800
C228        C  0.97446522  0.18588025  0.86220893    -0.00800
H229        H  0.03458760  0.19702035  0.87487361     0.12900
H230        H  0.97908260  0.15507767  0.87399222     0.13000
O231        O  0.02635107  0.33208552  0.73559576    -0.85200
O232        O  0.99184269  0.31458854  0.75487666    -0.82300
C233        C  0.97431652  0.31286825  0.76264915     0.98300
O234        O  0.95488415  0.31947011  0.76017568    -0.82300
O235        O  0.98578581  0.37977099  0.75615346    -0.84900
C236        C  0.00121393  0.40402031  0.75104410     1.02800
O237        O  0.00588412  0.40477073  0.74013275    -0.77700
O238        O  0.03859699  0.37820926  0.73734189    -0.77900
C239        C  0.04496628  0.35825461  0.73834701     1.02700
O240        O  0.97399408  0.30518094  0.72122086    -0.85200
O241        O  0.93968756  0.28380878  0.74038753    -0.82300
C242        C  0.91879617  0.28808960  0.73772432     0.98300
O243        O  0.92185036  0.31326269  0.73884953    -0.82300
O244        O  0.94827286  0.37277805  0.73660810    -0.84900
C245        C  0.95293719  0.37825005  0.72575521     1.02700
O246        O  0.97067118  0.37293709  0.72046846    -0.77700
O247        O  0.00649809  0.34971653  0.71590188    -0.77900
C248        C  0.98950176  0.32287768  0.71339262     1.02700
Cr249      Cr  0.98279446  0.31146238  0.73803225     1.93700
Cr250      Cr  0.95462873  0.34600383  0.74729421     1.93200
Cr251      Cr  0.00374083  0.37395190  0.72911021     1.39100
O252        O  0.98034035  0.34378334  0.73810827    -1.23000
O253        O  0.32953411  0.39635265  0.92090834    -0.85200
O254        O  0.36630596  0.41254226  0.90216342    -0.82300
C255        C  0.38584749  0.40773607  0.90624051     0.98300
O256        O  0.38116394  0.38187265  0.90683045    -0.82300
O257        O  0.35168928  0.32259894  0.91052122    -0.84900
C258        C  0.34426060  0.31816185  0.92118679     1.02800
O259        O  0.32642122  0.32524797  0.92514981    -0.77700
O260        O  0.29435915  0.35340258  0.92675026    -0.77900
C261        C  0.31265904  0.38018677  0.92884419     1.02700
O262        O  0.27924378  0.37003657  0.90545812    -0.85200
O263        O  0.31553073  0.38092787  0.88713333    -0.82300
C264        C  0.33336250  0.37974297  0.88024763     0.98300
O265        O  0.35212931  0.37349168  0.88415132    -0.82300
O266        O  0.31881141  0.31402607  0.88952760    -0.84900
C267        C  0.30058008  0.29105687  0.89485767     1.02700
O268        O  0.29309574  0.29260851  0.90524845    -0.77700
O269        O  0.26353027  0.32293123  0.90535319    -0.77900
C270        C  0.25946066  0.34404939  0.90314043     1.02700
Cr271      Cr  0.32267386  0.38733656  0.90406403     1.93700
Cr272      Cr  0.34898499  0.34862689  0.89830587     1.93200
Cr273      Cr  0.29627847  0.32586133  0.91492494     1.39100
O274        O  0.32258716  0.35382223  0.90579040    -1.23000
N275        N  0.31884830  0.47941588  0.02814654    -0.03300
C276        C  0.34174623  0.50124000  0.03416431    -0.00700
C277        C  0.33166300  0.51165681  0.04303129    -0.23600
C278        C  0.30174758  0.49610540  0.04247128    -0.23800
C279        C  0.29440944  0.47663522  0.03329984    -0.00800
H280        H  0.34474521  0.52839142  0.04940931     0.12900
H281        H  0.28685600  0.49857308  0.04818223     0.13000
N282        N  0.65572085  0.59011307  0.94374171    -0.03300
C283        C  0.63516083  0.58487574  0.93541746    -0.00700
C284        C  0.64775900  0.59180915  0.92443515    -0.23600
C285        C  0.67697155  0.60161433  0.92599971    -0.23800
C286        C  0.68129042  0.60038738  0.93786883    -0.00800
H287        H  0.63663069  0.58855379  0.91611398     0.12900
H288        H  0.69315641  0.60786821  0.91917969     0.13000
O289        O  0.69721608  0.66837274  0.06942835    -0.85200
O290        O  0.66025521  0.64939365  0.08787682    -0.82300
C291        C  0.64556266  0.65152566  0.09604161     0.98300
O292        O  0.62918956  0.66222650  0.09408065    -0.82300
O293        O  0.66456865  0.72186805  0.09095505    -0.84900
C294        C  0.68252716  0.74598733  0.08634298     1.02800
O295        O  0.68715798  0.74740847  0.07544641    -0.77700
O296        O  0.71424962  0.71528854  0.07247409    -0.77900
C297        C  0.71759942  0.69324300  0.07289801     1.02700
O298        O  0.64677402  0.64938537  0.05384276    -0.85200
O299        O  0.60943571  0.62706402  0.07222187    -0.82300
C300        C  0.59037024  0.63488085  0.07129565     0.98300
O301        O  0.59691378  0.66089814  0.07343349    -0.82300
O302        O  0.62888785  0.72010294  0.07132477    -0.84900
C303        C  0.63381926  0.72557510  0.06047520     1.02700
O304        O  0.65169621  0.72028682  0.05524788    -0.77700
O305        O  0.68384184  0.69298098  0.05036309    -0.77900
C306        C  0.66478736  0.66776493  0.04675117     1.02700
Cr307      Cr  0.65353304  0.65133938  0.07094783     1.93700
Cr308      Cr  0.63186157  0.69078870  0.08170328     1.93200
Cr309      Cr  0.68214992  0.71641060  0.06399844     1.39100
O310        O  0.65563727  0.68601351  0.07219871    -1.23000
N311        N  0.64787077  0.10925547  0.69815638    -0.03300
C312        C  0.66802113  0.11770302  0.70697708    -0.00700
C313        C  0.65456162  0.11341933  0.71773531    -0.23600
C314        C  0.62535105  0.10213839  0.71557892    -0.23800
C315        C  0.62176639  0.09980036  0.70359253    -0.00800
H316        H  0.66505544  0.11905416  0.72625016     0.12900
H317        H  0.60851840  0.09671985  0.72204719     0.13000
N318        N  0.97876129  0.23107513  0.61235002    -0.03300
C319        C  0.95642001  0.21740889  0.60452278    -0.00700
C320        C  0.96559157  0.20875902  0.59478411    -0.23600
C321        C  0.99439064  0.21719561  0.59663728    -0.23800
C322        C  0.00203935  0.23090891  0.60742502    -0.00800
H323        H  0.95250282  0.19698221  0.58723599     0.12900
H324        H  0.00851866  0.21440026  0.59060353     0.13000
N325        N  0.31262792  0.92964856  0.53520096    -0.03300
C326        C  0.33746201  0.93923837  0.54172036    -0.00700
C327        C  0.33072181  0.93075753  0.55325841    -0.23600
C328        C  0.30085774  0.91547073  0.55399500    -0.23800
C329        C  0.29026960  0.91500604  0.54286867    -0.00800
H330        H  0.34601073  0.93494622  0.56035057     0.12900
H331        H  0.28815092  0.90508672  0.56175025     0.13000
N332        N  0.64675381  0.11299848  0.44416074    -0.03300
C333        C  0.62534840  0.09697896  0.43618574    -0.00700
C334        C  0.63686119  0.10247443  0.42500305    -0.23600
C335        C  0.66612737  0.12240102  0.42607250    -0.23800
C336        C  0.67165275  0.12852055  0.43785535    -0.00800
H337        H  0.62494433  0.09416877  0.41686123     0.12900
H338        H  0.68154842  0.13225004  0.41898263     0.13000
O339        O  0.63913148  0.04210627  0.55387011    -0.85200
O340        O  0.60046186  0.02614362  0.57197106    -0.82300
C341        C  0.58070977  0.00036092  0.56931146     0.98300
O342        O  0.58540861  0.97928619  0.57042731    -0.82300
O343        O  0.61518605  0.94967715  0.56868030    -0.84900
C344        C  0.62306147  0.95094184  0.55812864     1.02800
O345        O  0.64248895  0.97488923  0.55376921    -0.77700
O346        O  0.67598771  0.03514074  0.55076399    -0.77900
C347        C  0.65767610  0.04211746  0.54699050     1.02700
O348        O  0.68789756  0.06974035  0.57013761    -0.85200
O349        O  0.64948599  0.04892958  0.58820352    -0.82300
C350        C  0.63195501  0.03090962  0.59553186     0.98300
O351        O  0.61402931  0.00471447  0.59250990    -0.82300
O352        O  0.64703031  0.97728519  0.58968614    -0.84900
C353        C  0.66588657  0.97214116  0.58529062     1.02700
O354        O  0.67347395  0.97862086  0.57473492    -0.77700
O355        O  0.70257526  0.03835728  0.57358690    -0.77900
C356        C  0.70689352  0.06409701  0.57418157     1.02700
Cr357      Cr  0.64419205  0.04403223  0.57108355     1.93700
Cr358      Cr  0.61751137  0.98025721  0.57971442     1.93200
Cr359      Cr  0.67158596  0.00723225  0.56378839     1.39100
O360        O  0.64425992  0.01034645  0.57150949    -1.23000
O361        O  0.35382657  0.99707983  0.40428939    -0.85200
O362        O  0.31542305  0.98150206  0.42231510    -0.82300
C363        C  0.29863410  0.98316800  0.42964080     0.98300
O364        O  0.28104643  0.99164322  0.42636942    -0.82300
O365        O  0.31643228  0.05112745  0.42340448    -0.84900
C366        C  0.33523875  0.07538432  0.41914085     1.02800
O367        O  0.34396322  0.07676624  0.40870236    -0.77700
O368        O  0.37112746  0.04404074  0.40702918    -0.77900
C369        C  0.37435019  0.02196095  0.40761569     1.02700
O370        O  0.30498866  0.97743630  0.38813687    -0.85200
O371        O  0.26607194  0.95675556  0.40603035    -0.82300
C372        C  0.24788232  0.96431163  0.40267349     0.98300
O373        O  0.25400418  0.99053402  0.40378361    -0.82300
O374        O  0.28609266  0.05020984  0.40239320    -0.84900
C375        C  0.29478717  0.05696177  0.39191640     1.02700
O376        O  0.31216480  0.04971392  0.38761978    -0.77700
O377        O  0.34273248  0.02062539  0.38439894    -0.77900
C378        C  0.32358796  0.99506928  0.38101117     1.02700
Cr379      Cr  0.31021484  0.98088058  0.40522759     1.93700
Cr380      Cr  0.28627392  0.02024245  0.41338113     1.93200
Cr381      Cr  0.34043476  0.04536699  0.39754832     1.39100
O382        O  0.31232537  0.01556205  0.40539305    -1.23000
N383        N  0.97831430  0.79101057  0.36514787    -0.03300
C384        C  0.00009753  0.80326682  0.37330849    -0.00700
C385        C  0.99105090  0.81225910  0.38297358    -0.23600
C386        C  0.96285285  0.80552947  0.38077740    -0.23800
C387        C  0.95554210  0.79253356  0.36986481    -0.00800
H388        H  0.00388526  0.82315243  0.39069375     0.12900
H389        H  0.94893275  0.80923336  0.38659353     0.13000
N390        N  0.31610694  0.92626189  0.27612888    -0.03300
C391        C  0.29083574  0.90979102  0.27004344    -0.00700
C392        C  0.29647013  0.90873956  0.25832832    -0.23600
C393        C  0.32619012  0.92511788  0.25704955    -0.23800
C394        C  0.33778486  0.93558062  0.26804927    -0.00800
H395        H  0.28060757  0.89700357  0.25147793     0.12900
H396        H  0.33817458  0.92826847  0.24901715     0.13000
N397        N  0.98547343  0.77711388  0.11437723    -0.03300
C398        C  0.96435538  0.76228372  0.10609234    -0.00700
C399        C  0.97662872  0.76573804  0.09514688    -0.23600
C400        C  0.00612792  0.78354944  0.09653922    -0.23800
C401        C  0.01112720  0.79045712  0.10829085    -0.00800
H402        H  0.96514105  0.75768322  0.08690428     0.12900
H403        H  0.02213215  0.79215949  0.08959620     0.13000
N404        N  0.65299324  0.57558080  0.19896370    -0.03300
C405        C  0.67736355  0.58438166  0.20571223    -0.00700
C406        C  0.66994657  0.57192862  0.21669138    -0.23600
C407        C  0.64013554  0.55492116  0.21685095    -0.23800
C408        C  0.63005711  0.55746427  0.20594335    -0.00800
H409        H  0.68475380  0.57502821  0.22384620     0.12900
H410        H  0.62718003  0.54176296  0.22414327     0.13000
O411        O  0.98726677  0.71218055  0.25904246    -0.85200
O412        O  0.02711752  0.73677678  0.24165552    -0.82300
C413        C  0.04728218  0.73102797  0.24385713     0.98300
O414        O  0.04320077  0.70561931  0.24221860    -0.82300
O415        O  0.01479536  0.64606961  0.24350249    -0.84900
C416        C  0.00838133  0.63993167  0.25421250     1.02800
O417        O  0.98933522  0.64437314  0.25890179    -0.77700
O418        O  0.95221181  0.66727365  0.26219629    -0.77900
C419        C  0.96900115  0.69309277  0.26585217     1.02700
O420        O  0.93903415  0.68964181  0.24192360    -0.85200
O421        O  0.97920796  0.71099987  0.22459731    -0.82300
C422        C  0.99738482  0.71180241  0.21733559     0.98300
O423        O  0.01507496  0.70333308  0.22031494    -0.82300
O424        O  0.98205378  0.64269534  0.22279977    -0.84900
C425        C  0.96431706  0.61805674  0.22715055     1.02700
O426        O  0.95803264  0.61591019  0.23792230    -0.77700
O427        O  0.92631839  0.64334755  0.23979099    -0.77900
C428        C  0.92059701  0.66373166  0.23866707     1.02700
Cr429      Cr  0.98325640  0.70976724  0.24178214     1.93700
Cr430      Cr  0.01158330  0.67469651  0.23284001     1.93200
Cr431      Cr  0.95857687  0.64537920  0.24913753     1.39100
O432        O  0.98452085  0.67672126  0.24124631    -1.23000
N433        N  0.09212194  0.67944766  0.78079727    -0.03300
C434        C  0.10339764  0.70254019  0.77329586    -0.00700
C435        C  0.10824670  0.69418725  0.76246991    -0.23600
C436        C  0.09968219  0.66499422  0.76327891    -0.23800
C437        C  0.08991911  0.65649308  0.77457649    -0.00800
H438        H  0.11760584  0.70805896  0.75487432     0.12900
H439        H  0.09997177  0.65125370  0.75631568     0.13000
N440        N  0.23395738  0.02188077  0.86756519    -0.03300
C441        C  0.22168367  0.99855123  0.87499468    -0.00700
C442        C  0.22680005  0.00791257  0.88648498    -0.23600
C443        C  0.24264715  0.03794405  0.88622250    -0.23800
C444        C  0.24672468  0.04607024  0.87455229    -0.00800
H445        H  0.21877374  0.99433178  0.89422748     0.12900
H446        H  0.24915220  0.05233734  0.89375306     0.13000
O447        O  0.30775280  0.05300027  0.74226360    -0.85200
O448        O  0.28629753  0.01478186  0.72404327    -0.82300
C449        C  0.28503315  0.99764832  0.71611645     0.98300
O450        O  0.29416002  0.97988301  0.71806542    -0.82300
O451        O  0.35451729  0.01344251  0.71937665    -0.84900
C452        C  0.37940237  0.03205090  0.72327943     1.02800
O453        O  0.38296841  0.03895681  0.73401777    -0.77700
O454        O  0.35343909  0.06801199  0.73799505    -0.77900
C455        C  0.33232936  0.07268935  0.73842304     1.02700
O456        O  0.28962529  0.00323774  0.75792498    -0.85200
O457        O  0.26373375  0.96516084  0.73975431    -0.82300
C458        C  0.27029589  0.94541056  0.74151359     0.98300
O459        O  0.29569237  0.95029794  0.73934384    -0.82300
O460        O  0.35559939  0.98091129  0.73922977    -0.84900
C461        C  0.36476265  0.98842577  0.74964955     1.02700
O462        O  0.35951130  0.00609431  0.75508736    -0.77700
O463        O  0.33413580  0.03977217  0.76046013    -0.77900
C464        C  0.30919872  0.02184111  0.76456071     1.02700
Cr465      Cr  0.28951315  0.00901609  0.74085167     1.93700
Cr466      Cr  0.32462813  0.98310248  0.72973545     1.93200
Cr467      Cr  0.35486875  0.03608416  0.74635720     1.39100
O468        O  0.32298865  0.00933570  0.73896887    -1.23000
N469        N  0.75554473  0.01578589  0.36639952    -0.03300
C470        C  0.74229660  0.99428071  0.37457255    -0.00700
C471        C  0.75609826  0.00396538  0.38531518    -0.23600
C472        C  0.77870525  0.03202648  0.38372924    -0.23800
C473        C  0.77795612  0.03875630  0.37210154    -0.00800
H474        H  0.75126330  0.99137063  0.39331819     0.12900
H475        H  0.79417958  0.04602769  0.39033078     0.13000
N476        N  0.56046322  0.67932308  0.27727605    -0.03300
C477        C  0.56810033  0.70283557  0.27019580    -0.00700
C478        C  0.55843527  0.69376606  0.25888966    -0.23600
C479        C  0.54436529  0.66371895  0.25893141    -0.23800
C480        C  0.54584214  0.65536591  0.27028280    -0.00800
H481        H  0.56111340  0.70759585  0.25143478     0.12900
H482        H  0.53343976  0.64944671  0.25154778     0.13000
N483        N  0.08959724  0.68067504  0.03244472    -0.03300
C484        C  0.07812168  0.65735929  0.03988322    -0.00700
C485        C  0.08401061  0.66672001  0.05137584    -0.23600
C486        C  0.09970594  0.69674888  0.05111986    -0.23800
C487        C  0.10298845  0.70473401  0.03947150    -0.00800
H488        H  0.07840278  0.65305070  0.05910004     0.12900
H489        H  0.10911378  0.71118021  0.05858536     0.13000
N490        N  0.87349582  0.35848427  0.95254234    -0.03300
C491        C  0.88787869  0.37944847  0.94426888    -0.00700
C492        C  0.87597191  0.36898546  0.93330822    -0.23600
C493        C  0.85347386  0.34082902  0.93481185    -0.23800
C494        C  0.85240532  0.33491569  0.94662339    -0.00800
H495        H  0.88211992  0.38106729  0.92515612     0.12900
H496        H  0.83933371  0.32618725  0.92802942     0.13000
N497        N  0.75650652  0.01221862  0.11520431    -0.03300
C498        C  0.76379776  0.03363588  0.10707359    -0.00700
C499        C  0.76006307  0.02212711  0.09590818    -0.23600
C500        C  0.75012111  0.99271054  0.09715800    -0.23800
C501        C  0.74813969  0.98722793  0.10903085    -0.00800
H502        H  0.76540064  0.03413118  0.08774110     0.12900
H503        H  0.74538007  0.97707293  0.09017728     0.13000
N504        N  0.88932821  0.35005177  0.20208237    -0.03300
C505        C  0.87936240  0.32973086  0.21083103    -0.00700
C506        C  0.88194602  0.34322343  0.22151593    -0.23600
C507        C  0.89368906  0.37258943  0.21934347    -0.23800
C508        C  0.89796699  0.37621867  0.20742554    -0.00800
H509        H  0.87481759  0.33267457  0.22995090     0.12900
H510        H  0.89808978  0.38946683  0.22573414     0.13000
O511        O  0.97588080  0.38744705  0.06767007    -0.85200
O512        O  0.94128538  0.33089554  0.05996511    -0.82300
C513        C  0.95628394  0.33147175  0.05130152     0.98300
O514        O  0.97936668  0.33049864  0.05297052    -0.82300
O515        O  0.03166464  0.34350579  0.06300799    -0.84900
C516        C  0.04829820  0.37115178  0.06278319     1.02800
O517        O  0.04333396  0.38743526  0.06931554    -0.77700
O518        O  0.01080420  0.40664312  0.08082958    -0.77900
C519        C  0.99729046  0.40970418  0.07221265     1.02700
O520        O  0.96231499  0.36781345  0.09162120    -0.85200
O521        O  0.93382405  0.31088393  0.08369738    -0.82300
C522        C  0.93102998  0.28734719  0.07964075     0.98300
O523        O  0.94790790  0.28793443  0.07162123    -0.82300
O524        O  0.00072742  0.30427385  0.08209136    -0.84900
C525        C  0.02372369  0.31995879  0.08793717     1.02700
O526        O  0.03533785  0.34759558  0.08786073    -0.77700
O527        O  0.99756452  0.36198623  0.09867228    -0.77900
C528        C  0.97556216  0.36486944  0.10032096     1.02700
Cr529      Cr  0.95585156  0.34911369  0.07574935     1.93700
Cr530      Cr  0.98965981  0.31868139  0.06800119     1.93200
Cr531      Cr  0.01928591  0.37380337  0.08363071     1.39100
O532        O  0.98833182  0.34701773  0.07580605    -1.23000
O533        O  0.67744074  0.00822610  0.25777380    -0.85200
O534        O  0.65977666  0.96854873  0.23996504    -0.82300
C535        C  0.63365158  0.94980345  0.24259757     0.98300
O536        O  0.61353147  0.95574334  0.24117051    -0.82300
O537        O  0.58626621  0.98820339  0.24199472    -0.84900
C538        C  0.58710878  0.99639181  0.25248384     1.02800
O539        O  0.61131000  0.01408590  0.25721949    -0.77700
O540        O  0.67111531  0.04556853  0.26101193    -0.77900
C541        C  0.67725637  0.02660518  0.26474253     1.02700
O542        O  0.70695032  0.05648108  0.24135084    -0.85200
O543        O  0.68509672  0.01702624  0.22343882    -0.82300
C544        C  0.66669738  0.99984815  0.21606128     0.98300
O545        O  0.64040274  0.98287105  0.21907971    -0.82300
O546        O  0.61632224  0.01862311  0.22132343    -0.84900
C547        C  0.61164944  0.03805097  0.22548111     1.02700
O548        O  0.61782650  0.04596493  0.23606573    -0.77700
O549        O  0.67720510  0.07340075  0.23828367    -0.77900
C550        C  0.70246898  0.07666498  0.23772622     1.02700
Cr551      Cr  0.67971274  0.01271861  0.24057705     1.93700
Cr552      Cr  0.61668768  0.98835232  0.23154911     1.93200
Cr553      Cr  0.64477991  0.04259955  0.24756295     1.39100
O554        O  0.64702861  0.01452682  0.23989422    -1.23000
O555        O  0.02268515  0.69076822  0.88829305    -0.85200
O556        O  0.04683114  0.73004485  0.90636178    -0.82300
C557        C  0.04190488  0.75016110  0.90308793     0.98300
O558        O  0.01642864  0.74636890  0.90383678    -0.82300
O559        O  0.95602632  0.71727056  0.90302242    -0.84900
C560        C  0.94826609  0.70856317  0.89258858     1.02800
O561        O  0.95341621  0.68969918  0.88814877    -0.77700
O562        O  0.97810857  0.65455887  0.88523228    -0.77900
C563        C  0.00358155  0.67217893  0.88146706     1.02700
O564        O  0.00079240  0.64234052  0.90451309    -0.85200
O565        O  0.01970973  0.68153244  0.92262969    -0.82300
C566        C  0.02055084  0.70015049  0.92975439     0.98300
O567        O  0.01408438  0.71915569  0.92633788    -0.82300
O568        O  0.95386286  0.68706717  0.92407819    -0.84900
C569        C  0.92908223  0.66866055  0.91998737     1.02700
O570        O  0.92659404  0.65998073  0.90949074    -0.77700
O571        O  0.95523712  0.62897969  0.90815454    -0.77900
C572        C  0.97602898  0.62377207  0.90853498     1.02700
Cr573      Cr  0.02001647  0.68631131  0.90547693     1.93700
Cr574      Cr  0.98545739  0.71545830  0.91370642     1.93200
Cr575      Cr  0.95580924  0.66025651  0.89829429     1.39100
O576        O  0.98706048  0.68742457  0.90580144    -1.23000
N577        N  0.41184087  0.34955694  0.44572665    -0.03300
C578        C  0.42319196  0.37358772  0.43863237    -0.00700
C579        C  0.42394026  0.36566737  0.42716895    -0.23600
C580        C  0.41284254  0.33595935  0.42708424    -0.23800
C581        C  0.40570299  0.32664273  0.43850346    -0.00800
H582        H  0.43292123  0.38024956  0.41974034     0.12900
H583        H  0.41133637  0.32272053  0.41959356     0.13000
N584        N  0.54321127  0.68031132  0.53253264    -0.03300
C585        C  0.53639565  0.66054405  0.54136828    -0.00700
C586        C  0.53783065  0.67374904  0.55202832    -0.23600
C587        C  0.54586879  0.70233254  0.54975097    -0.23800
C588        C  0.54907401  0.70578342  0.53779751    -0.00800
H589        H  0.53280909  0.66347662  0.56056789     0.12900
H590        H  0.54928881  0.71893858  0.55612705     0.13000
O591        O  0.63055142  0.72535254  0.40756326    -0.85200
O592        O  0.61593680  0.68646340  0.38968948    -0.82300
C593        C  0.61845900  0.67010423  0.38235539     0.98300
O594        O  0.62854983  0.65378150  0.38554474    -0.82300
O595        O  0.68768183  0.69100449  0.38870104    -0.84900
C596        C  0.71107566  0.71155838  0.39295959     1.02800
O597        O  0.71204425  0.71938859  0.40349872    -0.77700
O598        O  0.67741038  0.74383777  0.40474173    -0.77900
C599        C  0.65479155  0.74594465  0.40387947     1.02700
O600        O  0.61293029  0.67733657  0.42395713    -0.85200
O601        O  0.59329028  0.63773302  0.40599836    -0.82300
C602        C  0.60145196  0.61980514  0.40905171     0.98300
O603        O  0.62788241  0.62675797  0.40803062    -0.82300
O604        O  0.68742274  0.66111306  0.40980024    -0.84900
C605        C  0.69448997  0.67036369  0.42023239     1.02700
O606        O  0.68697320  0.68763581  0.42453623    -0.77700
O607        O  0.65548816  0.71625569  0.42748844    -0.77900
C608        C  0.63041279  0.69667040  0.43097708     1.02700
Cr609      Cr  0.61598738  0.68193336  0.40679474     1.93700
Cr610      Cr  0.65718509  0.66002928  0.39865211     1.93200
Cr611      Cr  0.68047450  0.71452348  0.41448407     1.39100
O612        O  0.65122908  0.68536950  0.40668034    -1.23000
N613        N  0.43427564  0.34239182  0.69831289    -0.03300
C614        C  0.43240546  0.31869146  0.70388725    -0.00700
C615        C  0.45299740  0.32742251  0.71275068    -0.23600
C616        C  0.46828130  0.35749322  0.71265782    -0.23800
C617        C  0.45646948  0.36609957  0.70375587    -0.00800
H618        H  0.45619987  0.31335258  0.71875692     0.12900
H619        H  0.48593250  0.37162977  0.71852085     0.13000
N620        N  0.19096882  0.01706726  0.61881261    -0.03300
C621        C  0.19820701  0.04052167  0.61173164    -0.00700
C622        C  0.17716065  0.03330862  0.60314317    -0.23600
C623        C  0.15626185  0.00455403  0.60489513    -0.23800
C624        C  0.16521280  0.99504551  0.61449591    -0.00800
H625        H  0.17698742  0.04760585  0.59636515     0.12900
H626        H  0.13698764  0.99170372  0.59955083     0.13000
O627        O  0.35257952  0.35604343  0.55702360    -0.85200
O628        O  0.37615553  0.39196963  0.57545749    -0.82300
C629        C  0.37227957  0.41369628  0.57409488     0.98300
O630        O  0.34759790  0.41120021  0.57573895    -0.82300
O631        O  0.28860736  0.38562253  0.57259972    -0.84900
C632        C  0.28348605  0.38100493  0.56169254     1.02800
O633        O  0.28771641  0.36232725  0.55651468    -0.77700
O634        O  0.30789470  0.32361960  0.55213344    -0.77900
C635        C  0.33436616  0.34050843  0.54932740     1.02700
O636        O  0.32537259  0.30422414  0.57234583    -0.85200
O637        O  0.34635023  0.34108924  0.59079832    -0.82300
C638        C  0.34705783  0.35785773  0.59874480     0.98300
O639        O  0.33985450  0.37695207  0.59652128    -0.82300
O640        O  0.28018379  0.34718030  0.59218610    -0.84900
C641        C  0.25589196  0.33278185  0.58702369     1.02700
O642        O  0.25496383  0.32846488  0.57608553    -0.77700
O643        O  0.27975846  0.29381463  0.57369721    -0.77900
C644        C  0.29884317  0.28633605  0.57490348     1.02700
Cr645      Cr  0.34756514  0.34856996  0.57392029     1.93700
Cr646      Cr  0.31424518  0.37810605  0.58355035     1.93200
Cr647      Cr  0.28517260  0.32879971  0.56528849     1.39100
O648        O  0.31585178  0.35199334  0.57423591    -1.23000
C649        C  0.22301415  0.07079164  0.61287112    -0.03100
C650        C  0.24808353  0.07946127  0.60606234    -0.05700
C651        C  0.26585166  0.10892948  0.60279047    -0.20700
C652        C  0.25835860  0.13001942  0.60601814     0.25000
C653        C  0.23486065  0.12173106  0.61376258    -0.18300
C654        C  0.21734277  0.09238919  0.61711761    -0.08300
C655        C  0.27348750  0.15963677  0.60042537    -0.18600
C656        C  0.25839888  0.17288479  0.59705562    -0.23400
C657        C  0.27036449  0.20145915  0.59070382     0.27000
C658        C  0.25027246  0.20968391  0.58679796    -0.20100
C659        C  0.25964221  0.23665168  0.58134532    -0.09800
C660        C  0.28955038  0.25647698  0.57958214    -0.10300
C661        C  0.30986418  0.24814182  0.58321498    -0.03200
C662        C  0.30039849  0.22089845  0.58873183    -0.18300
H663        H  0.25238595  0.06307728  0.60238798     0.10700
H664        H  0.28397921  0.11475948  0.59692287     0.10800
H665        H  0.22900891  0.13761432  0.61670888     0.10500
H666        H  0.19775244  0.08613201  0.62213947     0.11600
H667        H  0.29633777  0.16905187  0.59813633     0.11700
H668        H  0.23502335  0.16140978  0.59872121     0.13600
H669        H  0.22703372  0.19530514  0.58813285     0.10100
H670        H  0.24327905  0.24218561  0.57871211     0.12200
H671        H  0.33307750  0.26299075  0.58209544     0.08800
H672        H  0.31669377  0.21560199  0.59164935     0.11500
C673        C  0.41928433  0.34275064  0.68777443    -0.03100
C674        C  0.40696847  0.36086858  0.68689329    -0.05700
C675        C  0.39603150  0.36430778  0.67618272    -0.20700
C676        C  0.39692448  0.34955374  0.66609885     0.25000
C677        C  0.40848166  0.33060354  0.66711601    -0.18300
C678        C  0.41938658  0.32720415  0.67784804    -0.08300
C679        C  0.38709135  0.35586299  0.65469576    -0.18600
C680        C  0.38214987  0.33971802  0.64490968    -0.23400
C681        C  0.37383713  0.34633049  0.63325990     0.27000
C682        C  0.37603615  0.33148591  0.62349677    -0.20100
C683        C  0.36771820  0.33566544  0.61238040    -0.09800
C684        C  0.35680696  0.35485541  0.61064766    -0.10300
C685        C  0.35489412  0.37016319  0.62035587    -0.03200
C686        C  0.36324624  0.36591912  0.63157424    -0.18300
H687        H  0.40619024  0.37271422  0.69446628     0.10700
H688        H  0.38724797  0.37895836  0.67573704     0.10800
H689        H  0.41039038  0.31918722  0.65964196     0.10500
H690        H  0.42923237  0.31350463  0.67827225     0.11600
H691        H  0.38429845  0.37488271  0.65442886     0.11700
H692        H  0.38464922  0.32054516  0.64524203     0.13600
H693        H  0.38415573  0.31634853  0.62446687     0.10100
H694        H  0.36968631  0.32359027  0.60512831     0.12200
H695        H  0.34648386  0.38502664  0.61931797     0.08800
H696        H  0.36072242  0.37752211  0.63884032     0.11500
C697        C  0.54705837  0.67695681  0.52026317    -0.03100
C698        C  0.53251893  0.68438646  0.51180225    -0.05700
C699        C  0.53910258  0.68509237  0.49990733    -0.20700
C700        C  0.56092661  0.67914531  0.49624921     0.25000
C701        C  0.57485710  0.67079037  0.50471411    -0.18300
C702        C  0.56783182  0.66955221  0.51661149    -0.08300
C703        C  0.56828333  0.68141536  0.48355944    -0.18600
C704        C  0.59554380  0.69031352  0.47964267    -0.23400
C705        C  0.60351781  0.69302944  0.46697989     0.27000
C706        C  0.63286697  0.71135132  0.46373083    -0.20100
C707        C  0.64156663  0.71320279  0.45202838    -0.09800
C708        C  0.62115585  0.69637553  0.44329740    -0.10300
C709        C  0.59172262  0.67824392  0.44652961    -0.03200
C710        C  0.58298602  0.67662132  0.45819729    -0.18300
H711        H  0.51642537  0.69016456  0.51446407     0.10700
H712        H  0.52777542  0.69121475  0.49357547     0.10800
H713        H  0.59120156  0.66527154  0.50216076     0.10500
H714        H  0.57937993  0.66394039  0.52302504     0.11600
H715        H  0.55109662  0.67748459  0.47733949     0.11700
H716        H  0.61313560  0.69695287  0.48598963     0.13600
H717        H  0.64920315  0.72413635  0.47029885     0.10100
H718        H  0.66440622  0.72729315  0.44986665     0.12200
H719        H  0.57539960  0.66494547  0.44004259     0.08800
H720        H  0.56030676  0.66174325  0.46032257     0.11500
C721        C  0.52512535  0.62851138  0.54046813    -0.03100
C722        C  0.50263736  0.61085029  0.53256792    -0.05700
C723        C  0.48584362  0.58036717  0.53435270    -0.20700
C724        C  0.49104378  0.56732983  0.54414328     0.25000
C725        C  0.51531912  0.58468768  0.55132947    -0.18300
C726        C  0.53219361  0.61485686  0.54947684    -0.08300
C727        C  0.46999799  0.53627294  0.54728771    -0.18600
C728        C  0.46215539  0.52836578  0.55852435    -0.23400
C729        C  0.43949704  0.49849364  0.56230038     0.27000
C730        C  0.42209699  0.49579247  0.57198953    -0.20100
C731        C  0.40056724  0.46817959  0.57590819    -0.09800
C732        C  0.39670074  0.44259174  0.57049769    -0.10300
C733        C  0.41464602  0.44511402  0.56101389    -0.03200
C734        C  0.43567651  0.47287701  0.55684648    -0.18300
H735        H  0.49648071  0.62076526  0.52563296     0.10700
H736        H  0.46747258  0.56732592  0.52858983     0.10800
H737        H  0.52051820  0.57513382  0.55870464     0.10500
H738        H  0.54963016  0.62788929  0.55562592     0.11600
H739        H  0.45887866  0.52050312  0.54030334     0.11700
H740        H  0.47113493  0.54521305  0.56526325     0.13600
H741        H  0.42478672  0.51518044  0.57640156     0.10100
H742        H  0.38689077  0.46677357  0.58319343     0.12200
H743        H  0.41177212  0.42564408  0.55661791     0.08800
H744        H  0.44913521  0.47429117  0.54948897     0.11500
C745        C  0.58011494  0.59054375  0.41395001    -0.03100
C746        C  0.55067675  0.58236437  0.41580489    -0.05700
C747        C  0.53113835  0.55522430  0.42093397    -0.20700
C748        C  0.54067216  0.53564182  0.42435141     0.25000
C749        C  0.57001422  0.54384618  0.42238144    -0.18300
C750        C  0.58945461  0.57086131  0.41730291    -0.08300
C751        C  0.52103433  0.50604966  0.42954014    -0.18600
C752        C  0.49386051  0.49647746  0.43375323    -0.23400
C753        C  0.47468512  0.46571596  0.43793937     0.27000
C754        C  0.44423418  0.45232667  0.43643893    -0.20100
C755        C  0.42615358  0.42210199  0.43829582    -0.09800
C756        C  0.43809844  0.40486457  0.44198929    -0.10300
C757        C  0.46806410  0.41877131  0.44464008    -0.03200
C758        C  0.48619256  0.44889205  0.44268948    -0.18300
H759        H  0.54274671  0.59700556  0.41334245     0.10700
H760        H  0.50865910  0.54970418  0.42204164     0.10800
H761        H  0.57805405  0.52927595  0.42483589     0.10500
H762        H  0.61194971  0.57637504  0.41606807     0.11600
H763        H  0.52952899  0.49109537  0.42965311     0.11700
H764        H  0.48446558  0.51062039  0.43341605     0.13600
H765        H  0.43468648  0.46477830  0.43294087     0.10100
H766        H  0.40326323  0.41174745  0.43585238     0.12200
H767        H  0.47792904  0.40583948  0.44716986     0.08800
H768        H  0.50937245  0.45858271  0.44440049     0.11500
C769        C  0.34483544  0.34253195  0.53708511    -0.03100
C770        C  0.37337729  0.36462503  0.53419748    -0.05700
C771        C  0.38383848  0.36759204  0.52279110    -0.20700
C772        C  0.36633495  0.34846785  0.51387995     0.25000
C773        C  0.33768604  0.32615637  0.51671122    -0.18300
C774        C  0.32707008  0.32328566  0.52820028    -0.08300
C775        C  0.37877352  0.35368079  0.50179603    -0.18600
C776        C  0.36806273  0.33388014  0.49302354    -0.23400
C777        C  0.38037886  0.33952394  0.48091019     0.27000
C778        C  0.36255186  0.32129666  0.47184585    -0.20100
C779        C  0.37288111  0.32507901  0.46038217    -0.09800
C780        C  0.40154223  0.34696999  0.45762029    -0.10300
C781        C  0.41955237  0.36542841  0.46661576    -0.03200
C782        C  0.40915431  0.36171407  0.47816582    -0.18300
H783        H  0.38772186  0.38000847  0.54075773     0.10700
H784        H  0.40585790  0.38506131  0.52092334     0.10800
H785        H  0.32312879  0.31128511  0.51009865     0.10500
H786        H  0.30496620  0.30611495  0.53011327     0.11600
H787        H  0.39782233  0.37499210  0.50016736     0.11700
H788        H  0.34896029  0.31258161  0.49460861     0.13600
H789        H  0.34037548  0.30406115  0.47362580     0.10100
H790        H  0.35833338  0.31083806  0.45359579     0.12200
H791        H  0.44183355  0.38217549  0.46478590     0.08800
H792        H  0.42398906  0.37580935  0.48489411     0.11500
C793        C  0.96516859  0.36522309  0.11234324    -0.03100
C794        C  0.94499814  0.37477260  0.11419391    -0.05700
C795        C  0.93416957  0.37420128  0.12538404    -0.20700
C796        C  0.94272015  0.36355923  0.13499059     0.25000
C797        C  0.96320614  0.35429717  0.13320939    -0.18300
C798        C  0.97437284  0.35522327  0.12199810    -0.08300
C799        C  0.93048478  0.36352236  0.14671730    -0.18600
C800        C  0.92744837  0.34489222  0.15544391    -0.23400
C801        C  0.91525533  0.34486345  0.16722741     0.27000
C802        C  0.92027367  0.33033381  0.17650350    -0.20100
C803        C  0.91067297  0.33100507  0.18783776    -0.09800
C804        C  0.89565174  0.34609555  0.19015993    -0.10300
C805        C  0.88922437  0.35930059  0.18081315    -0.03200
C806        C  0.89885542  0.35872047  0.16947488    -0.18300
H807        H  0.93754557  0.38274382  0.10697200     0.10700
H808        H  0.91868492  0.38176815  0.12651393     0.10800
H809        H  0.97100049  0.34676517  0.14044976     0.10500
H810        H  0.98993160  0.34777227  0.12086152     0.11600
H811        H  0.92319769  0.37922155  0.14797860     0.11700
H812        H  0.93464967  0.32914004  0.15402035     0.13600
H813        H  0.93243447  0.31911099  0.17504859     0.10100
H814        H  0.91596399  0.32069305  0.19489979     0.12200
H815        H  0.87684919  0.37022422  0.18228616     0.08800
H816        H  0.89324547  0.36910713  0.16257811     0.11500
C817        C  0.86320294  0.29726926  0.20957295    -0.03100
C818        C  0.84098531  0.28335528  0.20114142    -0.05700
C819        C  0.82062363  0.25324895  0.20204150    -0.20700
C820        C  0.82222296  0.23641533  0.21130419     0.25000
C821        C  0.84568684  0.25015091  0.21929066    -0.18300
C822        C  0.86588180  0.28012887  0.21839997    -0.08300
C823        C  0.79741946  0.20588299  0.21319155    -0.18600
C824        C  0.79914790  0.18598465  0.22013064    -0.23400
C825        C  0.77353701  0.15727140  0.22366468     0.27000
C826        C  0.77862404  0.13545143  0.22826056    -0.20100
C827        C  0.75563901  0.10926118  0.23273519    -0.09800
C828        C  0.72692954  0.10433607  0.23286366    -0.10300
C829        C  0.72170366  0.12595711  0.22808817    -0.03200
C830        C  0.74468205  0.15210609  0.22356287    -0.18300
H831        H  0.83801870  0.29608850  0.19438347     0.10700
H832        H  0.80274538  0.24337135  0.19579365     0.10800
H833        H  0.84761055  0.23846113  0.22671150     0.10500
H834        H  0.88268908  0.29033878  0.22507335     0.11600
H835        H  0.77682331  0.20000901  0.20890172     0.11700
H836        H  0.82030011  0.19084765  0.22355157     0.13600
H837        H  0.80059675  0.13883657  0.22852638     0.10100
H838        H  0.76045079  0.09302173  0.23623412     0.12200
H839        H  0.69982893  0.12283168  0.22795955     0.08800
H840        H  0.73979366  0.16851957  0.22037709     0.11500
C841        C  0.90753441  0.25888471  0.08425134    -0.03100
C842        C  0.88359273  0.25733721  0.09021727    -0.05700
C843        C  0.86161140  0.23067162  0.09475973    -0.20700
C844        C  0.86346480  0.20513827  0.09375312     0.25000
C845        C  0.88738346  0.20659811  0.08778312    -0.18300
C846        C  0.90909057  0.23316730  0.08301816    -0.08300
C847        C  0.83935284  0.17696032  0.09837184    -0.18600
C848        C  0.84391638  0.15597917  0.10294826    -0.23400
C849        C  0.82007824  0.12612941  0.10632923     0.27000
C850        C  0.82693497  0.10862899  0.11348770    -0.20100
C851        C  0.80689158  0.07868596  0.11498169    -0.09800
C852        C  0.77980385  0.06564520  0.10917618    -0.10300
C853        C  0.77203805  0.08346542  0.10274232    -0.03200
C854        C  0.79186074  0.11343715  0.10136983    -0.18300
H855        H  0.88169549  0.27673050  0.09127955     0.10700
H856        H  0.84323138  0.23003420  0.09918387     0.10800
H857        H  0.88903149  0.18710905  0.08658191     0.10500
H858        H  0.92726811  0.23365937  0.07848524     0.11600
H859        H  0.81746210  0.17389387  0.09821170     0.11700
H860        H  0.86628073  0.16062882  0.10404915     0.13600
H861        H  0.84850388  0.11777215  0.11738559     0.10100
H862        H  0.81360582  0.06525973  0.11976829     0.12200
H863        H  0.75141145  0.07371742  0.09803299     0.08800
H864        H  0.78573469  0.12586822  0.09565463     0.11500
C865        C  0.67607572  0.99965403  0.20381285    -0.03100
C866        C  0.65535987  0.98465689  0.19492116    -0.05700
C867        C  0.66417978  0.98601124  0.18327860    -0.20700
C868        C  0.69390405  0.00195149  0.18025126     0.25000
C869        C  0.71469883  0.01666655  0.18916269    -0.18300
C870        C  0.70586662  0.01557211  0.20078552    -0.08300
C871        C  0.70221446  0.00412635  0.16767414    -0.18600
C872        C  0.72855864  0.00915417  0.16399124    -0.23400
C873        C  0.73644152  0.01123590  0.15137736     0.27000
C874        C  0.75611848  0.00225073  0.14777899    -0.20100
C875        C  0.76343140  0.00331313  0.13594410    -0.09800
C876        C  0.75166303  0.01393398  0.12751228    -0.10300
C877        C  0.73296148  0.02407329  0.13114306    -0.03200
C878        C  0.72530313  0.02264367  0.14294368    -0.18300
H879        H  0.63224728  0.97236402  0.19691477     0.10700
H880        H  0.64767160  0.97464736  0.17658773     0.10800
H881        H  0.73772870  0.02979767  0.18715702     0.10500
H882        H  0.72241423  0.02754626  0.20739318     0.11600
H883        H  0.68549803  0.00023822  0.16120800     0.11700
H884        H  0.74435576  0.01013791  0.17035596     0.13600
H885        H  0.76534269  0.99377973  0.15411043     0.10100
H886        H  0.77816079  0.99571844  0.13335354     0.12200
H887        H  0.72360845  0.03227920  0.12475954     0.08800
H888        H  0.71077925  0.03058377  0.14544350     0.11500
C889        C  0.88120259  0.35933806  0.96474358    -0.03100
C890        C  0.85952842  0.34834856  0.97339740    -0.05700
C891        C  0.86660800  0.34605486  0.98504305    -0.20700
C892        C  0.89543427  0.35430891  0.98828468     0.25000
C893        C  0.91736900  0.36652714  0.97967509    -0.18300
C894        C  0.91027239  0.36899876  0.96804193    -0.08300
C895        C  0.90165756  0.35000246  0.00069219    -0.18600
C896        C  0.92473295  0.34715342  0.00397655    -0.23400
C897        C  0.93118848  0.34200123  0.01626050     0.27000
C898        C  0.95343403  0.33515030  0.01809123    -0.20100
C899        C  0.96120562  0.33113078  0.02940448    -0.09800
C900        C  0.94682674  0.33374469  0.03923270    -0.10300
C901        C  0.92431503  0.34023975  0.03743926    -0.03200
C902        C  0.91665876  0.34446252  0.02612583    -0.18300
H903        H  0.83703029  0.34116661  0.97109618     0.10700
H904        H  0.84933147  0.33706965  0.99149308     0.10800
H905        H  0.94000898  0.37417995  0.98184194     0.10500
H906        H  0.92734996  0.37755339  0.96151495     0.11600
H907        H  0.88559573  0.34746447  0.00713494     0.11700
H908        H  0.93940386  0.34763579  0.99726645     0.13600
H909        H  0.96511341  0.33315266  0.01071776     0.10100
H910        H  0.97870531  0.32625891  0.03045348     0.12200
H911        H  0.91301015  0.34277510  0.04482471     0.08800
H912        H  0.89980259  0.35022319  0.02527742     0.11500
C913        C  0.90854889  0.41101208  0.94619816    -0.03100
C914        C  0.89957839  0.42784094  0.95253757    -0.05700
C915        C  0.91311643  0.45819864  0.95069291    -0.20700
C916        C  0.93576198  0.47216330  0.94247803     0.25000
C917        C  0.94683929  0.45564762  0.93718796    -0.18300
C918        C  0.93313579  0.42534746  0.93895173    -0.08300
C919        C  0.94529269  0.50300334  0.93896847    -0.18600
C920        C  0.95818631  0.51479303  0.92862169    -0.23400
C921        C  0.96336688  0.54358244  0.92412702     0.27000
C922        C  0.98502028  0.55830691  0.91561746    -0.20100
C923        C  0.98930642  0.58442811  0.91058525    -0.09800
C924        C  0.97147878  0.59600479  0.91373525    -0.10300
C925        C  0.94966706  0.58122223  0.92218351    -0.03200
C926        C  0.94571369  0.55537982  0.92736899    -0.18300
H927        H  0.88036316  0.41720098  0.95802420     0.10700
H928        H  0.90440516  0.47039491  0.95504355     0.10800
H929        H  0.96512763  0.46559955  0.93124791     0.10500
H930        H  0.94036670  0.41272330  0.93395523     0.11600
H931        H  0.93928831  0.51549602  0.94470303     0.11700
H932        H  0.96444750  0.50262178  0.92284642     0.13600
H933        H  0.99865527  0.54951767  0.91283589     0.10100
H934        H  0.00626404  0.59532696  0.90409052     0.12200
H935        H  0.93572619  0.58975895  0.92483840     0.08800
H936        H  0.92824106  0.54431219  0.93362563     0.11500
C937        C  0.06439164  0.62596769  0.03693889    -0.03100
C938        C  0.03395441  0.60800012  0.03776490    -0.05700
C939        C  0.02144898  0.57769591  0.03946180    -0.20700
C940        C  0.03926792  0.56509666  0.04069926     0.25000
C941        C  0.06956184  0.58282287  0.03892339    -0.18300
C942        C  0.08197236  0.61300075  0.03709118    -0.08300
C943        C  0.02608299  0.53409399  0.04465799    -0.18600
C944        C  0.04005647  0.52559633  0.05226542    -0.23400
C945        C  0.02731415  0.49568064  0.05745462     0.27000
C946        C  0.04061578  0.49208658  0.06752006    -0.20100
C947        C  0.03042751  0.46435890  0.07248034    -0.09800
C948        C  0.00667997  0.43938907  0.06745727    -0.10300
C949        C  0.99305911  0.44294881  0.05745986    -0.03200
C950        C  0.00325698  0.47074739  0.05249410    -0.18300
H951        H  0.02011288  0.61769453  0.03800845     0.10700
H952        H  0.99802848  0.56445384  0.04069951     0.10800
H953        H  0.08381338  0.57363787  0.03948871     0.10500
H954        H  0.10557121  0.62660151  0.03674025     0.11600
H955        H  0.00352149  0.51901418  0.04222413     0.11700
H956        H  0.06161024  0.54196455  0.05541218     0.13600
H957        H  0.05919697  0.51084399  0.07153274     0.10100
H958        H  0.04149591  0.46244777  0.08015131     0.12200
H959        H  0.97486307  0.42413003  0.05330476     0.08800
H960        H  0.99271496  0.47236731  0.04461832     0.11500
C961        C  0.02962649  0.69989237  0.94208980    -0.03100
C962        C  0.03290204  0.72160678  0.95005781    -0.05700
C963        C  0.04150602  0.72121519  0.96164755    -0.20700
C964        C  0.04691528  0.69907906  0.96563274     0.25000
C965        C  0.04342613  0.67718464  0.95765368    -0.18300
C966        C  0.03488108  0.67762826  0.94605239    -0.08300
C967        C  0.05664468  0.70034221  0.97805674    -0.18600
C968        C  0.05886586  0.67884489  0.98364427    -0.23400
C969        C  0.06791149  0.68049158  0.99620079     0.27000
C970        C  0.07599987  0.66041011  0.00043052    -0.20100
C971        C  0.08363808  0.66058133  0.01224513    -0.09800
C972        C  0.08321403  0.68079549  0.02011324    -0.10300
C973        C  0.07510319  0.70078761  0.01589089    -0.03200
C974        C  0.06751643  0.70066357  0.00415105    -0.18300
H975        H  0.02895014  0.73901108  0.94733264     0.10700
H976        H  0.04396197  0.73839693  0.96754582     0.10800
H977        H  0.04759062  0.65985797  0.96016957     0.10500
H978        H  0.03244714  0.66045308  0.94015871     0.11600
H979        H  0.06225785  0.72034513  0.98274723     0.11700
H980        H  0.05390608  0.65901523  0.97896322     0.13600
H981        H  0.07636900  0.64447524  0.99456856     0.10100
H982        H  0.08998896  0.64504688  0.01519228     0.12200
H983        H  0.07374090  0.71606639  0.02180242     0.08800
H984        H  0.06051194  0.71589888  0.00154784     0.11500
C985        C  0.60913856  0.67023469  0.37001702    -0.03100
C986        C  0.59398191  0.68506792  0.36719257    -0.05700
C987        C  0.58579500  0.68635178  0.35564693    -0.20700
C988        C  0.59282357  0.67327542  0.34651121     0.25000
C989        C  0.60778297  0.65812293  0.34928880    -0.18300
C990        C  0.61580821  0.65661594  0.36092615    -0.08300
C991        C  0.58343139  0.67557322  0.33436742    -0.18600
C992        C  0.59565064  0.67248022  0.32453557    -0.23400
C993        C  0.58646768  0.67531890  0.31241621     0.27000
C994        C  0.59363215  0.66270072  0.30313122    -0.20100
C995        C  0.58541118  0.66445838  0.29163770    -0.09800
C996        C  0.57018393  0.67927050  0.28909089    -0.10300
C997        C  0.56357835  0.69263398  0.29824318    -0.03200
C998        C  0.57157228  0.69066342  0.30981841    -0.18300
H999        H  0.58839208  0.69579850  0.37393283     0.10700
H1000       H  0.57414311  0.69798417  0.35382808     0.10800
H1001       H  0.61299168  0.64706341  0.34258168     0.10500
H1002       H  0.62744344  0.64501001  0.36279071     0.11600
H1003       H  0.56602032  0.68071406  0.33360716     0.11700
H1004       H  0.61300473  0.66724858  0.32528627     0.13600
H1005       H  0.60531908  0.65104145  0.30479658     0.10100
H1006       H  0.59083653  0.65413679  0.28467189     0.12200
H1007       H  0.55173347  0.70404649  0.29645548     0.08800
H1008       H  0.56630892  0.70145462  0.31661681     0.11500
C1009       C  0.58406403  0.73421483  0.27335430    -0.03100
C1010       C  0.61285080  0.75182235  0.26941515    -0.05700
C1011       C  0.62481449  0.78215441  0.26812506    -0.20700
C1012       C  0.60794601  0.79532250  0.27046309     0.25000
C1013       C  0.57993253  0.77797050  0.27532842    -0.18300
C1014       C  0.56807450  0.74765543  0.27668731    -0.08300
C1015       C  0.61934132  0.82646265  0.26689845    -0.18600
C1016       C  0.60156467  0.83620247  0.26296687    -0.23400
C1017       C  0.61128364  0.86578998  0.25778429     0.27000
C1018       C  0.58958882  0.87152047  0.25360708    -0.20100
C1019       C  0.59694104  0.89850328  0.24854170    -0.09800
C1020       C  0.62632674  0.92066862  0.24743426    -0.10300
C1021       C  0.64821761  0.91505575  0.25151355    -0.03200
C1022       C  0.64083435  0.88797598  0.25666704    -0.18300
H1023       H  0.62523710  0.74178480  0.26645875     0.10700
H1024       H  0.64650237  0.79498577  0.26445892     0.10800
H1025       H  0.56662869  0.78749452  0.27759906     0.10500
H1026       H  0.54555343  0.73438803  0.27944515     0.11600
H1027       H  0.64285925  0.84046406  0.26642258     0.11700
H1028       H  0.57814997  0.82098853  0.26295462     0.13600
H1029       H  0.56667198  0.85499071  0.25427699     0.10100
H1030       H  0.57947583  0.90201053  0.24551733     0.12200
H1031       H  0.67106680  0.93177758  0.25089418     0.08800
H1032       H  0.65840246  0.88480767  0.25975077     0.11500
C1033       C  0.65694350  0.77265640  0.39850237    -0.03100
C1034       C  0.63335657  0.77787177  0.39875166    -0.05700
C1035       C  0.63588933  0.80330291  0.39368165    -0.20700
C1036       C  0.66181936  0.82382837  0.38808417     0.25000
C1037       C  0.68522944  0.81830161  0.38767118    -0.18300
C1038       C  0.68277849  0.79305565  0.39280000    -0.08300
C1039       C  0.66488443  0.85208609  0.38392667    -0.18600
C1040       C  0.68501964  0.86977256  0.37603495    -0.23400
C1041       C  0.69339604  0.90101318  0.37391155     0.27000
C1042       C  0.71285371  0.91640974  0.36474931    -0.20100
C1043       C  0.72649877  0.94706467  0.36402433    -0.09800
C1044       C  0.72097408  0.96286429  0.37249789    -0.10300
C1045       C  0.69963286  0.94735955  0.38101327    -0.03200
C1046       C  0.68600073  0.91683264  0.38174847    -0.18300
H1047       H  0.61310474  0.76253409  0.40301487     0.10700
H1048       H  0.61762789  0.80713857  0.39425500     0.10800
H1049       H  0.70590956  0.83386373  0.38378674     0.10500
H1050       H  0.70132888  0.78965082  0.39237033     0.11600
H1051       H  0.65051586  0.85872853  0.38787512     0.11700
H1052       H  0.69739457  0.86170030  0.37136289     0.13600
H1053       H  0.71905409  0.90490036  0.35859470     0.10100
H1054       H  0.74330440  0.95848664  0.35752167     0.12200
H1055       H  0.69525343  0.95912439  0.38772687     0.08800
H1056       H  0.67152597  0.90629914  0.38903475     0.11500
C1057       C  0.68449728  0.02590137  0.27731500    -0.03100
C1058       C  0.67774939  0.04071464  0.28586811    -0.05700
C1059       C  0.68354074  0.03884326  0.29775357    -0.20700
C1060       C  0.69671326  0.02261967  0.30135201     0.25000
C1061       C  0.70335185  0.00771814  0.29278607    -0.18300
C1062       C  0.69727564  0.00931287  0.28094408    -0.08300
C1063       C  0.70255214  0.02101549  0.31407689    -0.18600
C1064       C  0.72435307  0.01685389  0.31800541    -0.23400
C1065       C  0.73148249  0.01627016  0.33062986     0.27000
C1066       C  0.76029225  0.02416639  0.33371860    -0.20100
C1067       C  0.76810931  0.02383733  0.34542013    -0.09800
C1068       C  0.74716346  0.01502032  0.35429828    -0.10300
C1069       C  0.71813854  0.00636734  0.35125178    -0.03200
C1070       C  0.71035463  0.00713838  0.33953325    -0.18300
H1071       H  0.66755997  0.05337536  0.28339585     0.10700
H1072       H  0.67789469  0.05028710  0.30415835     0.10800
H1073       H  0.71267024  0.99425629  0.29520277     0.10500
H1074       H  0.70251384  0.99739897  0.27461360     0.11600
H1075       H  0.68961680  0.02508524  0.32033640     0.11700
H1076       H  0.73899310  0.01564938  0.31170118     0.13600
H1077       H  0.77692857  0.03095725  0.32705070     0.10100
H1078       H  0.79053662  0.03030799  0.34756240     0.12200
H1079       H  0.70166146  0.99949668  0.35798471     0.08800
H1080       H  0.68778711  0.00019153  0.33746627     0.11500
C1081       C  0.33670844  0.10134430  0.73424954    -0.03100
C1082       C  0.31357854  0.10732229  0.73381413    -0.05700
C1083       C  0.31791749  0.13384306  0.72907721    -0.20700
C1084       C  0.34523593  0.15454267  0.72449694     0.25000
C1085       C  0.36848511  0.14886889  0.72527331    -0.18300
C1086       C  0.36427097  0.12266683  0.73006351    -0.08300
C1087       C  0.34989515  0.18263864  0.71944401    -0.18600
C1088       C  0.36823024  0.19564626  0.71037428    -0.23400
C1089       C  0.37966714  0.22652008  0.70644127     0.27000
C1090       C  0.40441468  0.23905628  0.69919164    -0.20100
C1091       C  0.41990525  0.26924827  0.69710921    -0.09800
C1092       C  0.41061008  0.28750184  0.70200566    -0.10300
C1093       C  0.38439458  0.27482648  0.70833416    -0.03200
C1094       C  0.36894629  0.24454138  0.71053979    -0.18300
H1095       H  0.29209617  0.09139225  0.73698563     0.10700
H1096       H  0.29979671  0.13795433  0.72877298     0.10800
H1097       H  0.39013336  0.16484224  0.72228046     0.10500
H1098       H  0.38268829  0.11901907  0.73035964     0.11600
H1099       H  0.33891533  0.19291351  0.72359238     0.11700
H1100       H  0.37763416  0.18376795  0.70620855     0.13600
H1101       H  0.41315844  0.22580719  0.69584750     0.10100
H1102       H  0.44048332  0.27866786  0.69247685     0.12200
H1103       H  0.37725436  0.28867795  0.71242326     0.08800
H1104       H  0.34966887  0.23582858  0.71594328     0.11500
C1105       C  0.27214902  0.99848782  0.70462133    -0.03100
C1106       C  0.25635650  0.01335186  0.70370177    -0.05700
C1107       C  0.24461030  0.01531814  0.69301072    -0.20700
C1108       C  0.24868230  0.00297800  0.68285133     0.25000
C1109       C  0.26430453  0.98784072  0.68367650    -0.18300
C1110       C  0.27581477  0.98548425  0.69450469    -0.08300
C1111       C  0.23501541  0.00549160  0.67180609    -0.18600
C1112       C  0.24508749  0.00566093  0.66096814    -0.23400
C1113       C  0.23108286  0.00946537  0.65021720     0.27000
C1114       C  0.24784236  0.02168811  0.64006539    -0.20100
C1115       C  0.23501520  0.02513548  0.62982439    -0.09800
C1116       C  0.20510066  0.01601554  0.62950852    -0.10300
C1117       C  0.18839529  0.00388173  0.63964226    -0.03200
C1118       C  0.20111790  0.00050037  0.64984102    -0.18300
H1119       H  0.25291713  0.02349024  0.71130135     0.10700
H1120       H  0.23246220  0.02683849  0.69266179     0.10800
H1121       H  0.26723569  0.97745542  0.67604893     0.10500
H1122       H  0.28780593  0.97382280  0.69493916     0.11600
H1123       H  0.21688686  0.00946293  0.67277631     0.11700
H1124       H  0.26494152  0.00460429  0.65995953     0.13600
H1125       H  0.27088155  0.02855353  0.64006315     0.10100
H1126       H  0.24821706  0.03411257  0.62206018     0.12200
H1127       H  0.16527447  0.99664331  0.63959346     0.08800
H1128       H  0.18715316  0.99015860  0.65730541     0.11500
C1129       C  0.30247621  0.02338576  0.77706597    -0.03100
C1130       C  0.32294564  0.04569893  0.78440324    -0.05700
C1131       C  0.31605045  0.04776064  0.79604713    -0.20700
C1132       C  0.28859653  0.02757903  0.80070986     0.25000
C1133       C  0.26821047  0.00496616  0.79336895    -0.18300
C1134       C  0.27510395  0.00296152  0.78171624    -0.08300
C1135       C  0.28249837  0.03133979  0.81317354    -0.18600
C1136       C  0.25758968  0.01323075  0.81895494    -0.23400
C1137       C  0.25209546  0.01723755  0.83144229     0.27000
C1138       C  0.22316892  0.00240274  0.83556065    -0.20100
C1139       C  0.21697835  0.00440637  0.84731588    -0.09800
C1140       C  0.23964173  0.02110605  0.85526078    -0.10300
C1141       C  0.26853902  0.03625499  0.85115933    -0.03200
C1142       C  0.27478553  0.03429678  0.83941982    -0.18300
H1143       H  0.34423056  0.06181764  0.78111592     0.10700
H1144       H  0.33229110  0.06538548  0.80143402     0.10800
H1145       H  0.24679038  0.98878903  0.79641093     0.10500
H1146       H  0.25881630  0.98544224  0.77631071     0.11600
H1147       H  0.29951025  0.05041692  0.81770143     0.11700
H1148       H  0.23992114  0.99470194  0.81444510     0.13600
H1149       H  0.20521657  0.98910634  0.82964581     0.10100
H1150       H  0.19451572  0.99304054  0.85014708     0.12200
H1151       H  0.28643090  0.04898039  0.85717129     0.08800
H1152       H  0.29744715  0.04545521  0.83680388     0.11500
C1153       C  0.20200310  0.96736623  0.87201339    -0.03100
C1154       C  0.17263980  0.95774510  0.86932835    -0.05700
C1155       C  0.15142272  0.92805593  0.87029271    -0.20700
C1156       C  0.15895050  0.90746570  0.87430395     0.25000
C1157       C  0.18874333  0.91684701  0.87622326    -0.18300
C1158       C  0.20999092  0.94657820  0.87517575    -0.08300
C1159       C  0.13485362  0.87726416  0.87717012    -0.18600
C1160       C  0.13755975  0.85930903  0.88489294    -0.23400
C1161       C  0.11239254  0.83113143  0.88907954     0.27000
C1162       C  0.11760628  0.80908084  0.89325399    -0.20100
C1163       C  0.09480153  0.78287912  0.89779237    -0.09800
C1164       C  0.06620840  0.77823754  0.89844195    -0.10300
C1165       C  0.06102704  0.80046004  0.89437671    -0.03200
C1166       C  0.08381715  0.82659580  0.88976031    -0.18300
H1167       H  0.16572953  0.97348841  0.86738793     0.10700
H1168       H  0.12872857  0.92151899  0.86870034     0.10800
H1169       H  0.19569711  0.90163305  0.87895554     0.10500
H1170       H  0.23243019  0.95364669  0.87756439     0.11600
H1171       H  0.11346791  0.87055087  0.87343774     0.11700
H1172       H  0.15881789  0.86554316  0.88861300     0.13600
H1173       H  0.13943901  0.81211362  0.89297307     0.10100
H1174       H  0.09962201  0.76626776  0.90082396     0.12200
H1175       H  0.03932468  0.79770407  0.89478713     0.08800
H1176       H  0.07906811  0.84343527  0.88701986     0.11500
C1177       C  0.11362342  0.73353644  0.77602063    -0.03100
C1178       C  0.10044267  0.74743833  0.77019491    -0.05700
C1179       C  0.11595299  0.77779262  0.76839386    -0.20700
C1180       C  0.14514771  0.79452164  0.77210318     0.25000
C1181       C  0.15723981  0.78104515  0.77901703    -0.18300
C1182       C  0.14151318  0.75072043  0.78097630    -0.08300
C1183       C  0.16334104  0.82482706  0.76751112    -0.18600
C1184       C  0.19076709  0.83444365  0.76367027    -0.23400
C1185       C  0.20941156  0.86272347  0.75746017     0.27000
C1186       C  0.23495103  0.86676653  0.75203568    -0.20100
C1187       C  0.25415491  0.89322816  0.74655646    -0.09800
C1188       C  0.24832183  0.91645548  0.74631969    -0.10300
C1189       C  0.22235429  0.91225913  0.75143786    -0.03200
C1190       C  0.20312181  0.88572192  0.75699562    -0.18300
H1191       H  0.07916486  0.73446931  0.76611010     0.10700
H1192       H  0.10607567  0.78772361  0.76315474     0.10800
H1193       H  0.17947607  0.79360608  0.78226799     0.10500
H1194       H  0.15224983  0.74034922  0.78531991     0.11600
H1195       H  0.15271976  0.83755749  0.76591375     0.11700
H1196       H  0.19965328  0.81986921  0.76452902     0.13600
H1197       H  0.24033713  0.84945821  0.75216920     0.10100
H1198       H  0.27388168  0.89564202  0.74266551     0.12200
H1199       H  0.21734650  0.92982106  0.75147570     0.08800
H1200       H  0.18390942  0.88377738  0.76114274     0.11500
C1201       C  0.08423171  0.67909656  0.79285991    -0.03100
C1202       C  0.09574733  0.66889278  0.80156075    -0.05700
C1203       C  0.08767864  0.66788749  0.81326922    -0.20700
C1204       C  0.06729354  0.67626425  0.81645750     0.25000
C1205       C  0.05575472  0.68653454  0.80771824    -0.18300
C1206       C  0.06438196  0.68816808  0.79602617    -0.08300
C1207       C  0.05975971  0.67549224  0.82902474    -0.18600
C1208       C  0.03321273  0.66964672  0.83274822    -0.23400
C1209       C  0.02620114  0.66959697  0.84536229     0.27000
C1210       C  0.99739899  0.65145071  0.84923605    -0.20100
C1211       C  0.99004908  0.65182753  0.86098649    -0.09800
C1212       C  0.01130380  0.67076716  0.86908115    -0.10300
C1213       C  0.04010745  0.68899306  0.86516485    -0.03200
C1214       C  0.04748027  0.68840520  0.85346823    -0.18300
H1215       H  0.11121399  0.66196364  0.79926657     0.10700
H1216       H  0.09713084  0.66023545  0.81984717     0.10800
H1217       H  0.04053971  0.69383079  0.80993603     0.10500
H1218       H  0.05528514  0.69607321  0.78940711     0.11600
H1219       H  0.07631309  0.67848396  0.83542687     0.11700
H1220       H  0.01572520  0.66365745  0.82639840     0.13600
H1221       H  0.98054817  0.63690911  0.84315041     0.10100
H1222       H  0.96764743  0.63756793  0.86369328     0.12200
H1223       H  0.05699875  0.70399647  0.87112590     0.08800
H1224       H  0.06970346  0.70329101  0.85073978     0.11500
C1225       C  0.95181012  0.59095629  0.22001999    -0.03100
C1226       C  0.92550247  0.56630087  0.22349542    -0.05700
C1227       C  0.91508423  0.53943249  0.21782034    -0.20700
C1228       C  0.93098688  0.53630773  0.20870612     0.25000
C1229       C  0.95671096  0.56126809  0.20483285    -0.18300
C1230       C  0.96692110  0.58844676  0.21041091    -0.08300
C1231       C  0.92048892  0.50631282  0.20402400    -0.18600
C1232       C  0.93836602  0.49709458  0.19988107    -0.23400
C1233       C  0.92865198  0.46531674  0.19876700     0.27000
C1234       C  0.94874214  0.45598427  0.20131944    -0.20100
C1235       C  0.93913621  0.42616927  0.20297167    -0.09800
C1236       C  0.90938759  0.40519064  0.20184384    -0.10300
C1237       C  0.88968558  0.41420466  0.19828143    -0.03200
C1238       C  0.89925195  0.44397355  0.19660059    -0.18300
H1239       H  0.91325940  0.56763453  0.23080422     0.10700
H1240       H  0.89509588  0.52065741  0.22092153     0.10800
H1241       H  0.96913366  0.55978525  0.19764316     0.10500
H1242       H  0.98725006  0.60714960  0.20754443     0.11600
H1243       H  0.89780488  0.49017988  0.20576186     0.11700
H1244       H  0.96162479  0.51264014  0.19917861     0.13600
H1245       H  0.97152613  0.47191916  0.20296442     0.10100
H1246       H  0.95454719  0.41969051  0.20597619     0.12200
H1247       H  0.86653450  0.39838995  0.19760400     0.08800
H1248       H  0.88330472  0.45026304  0.19423797     0.11500
C1249       C  0.70821423  0.60497410  0.20273786    -0.03100
C1250       C  0.72218033  0.63300788  0.20785243    -0.05700
C1251       C  0.75247929  0.64807634  0.20982791    -0.20700
C1252       C  0.76925430  0.63515648  0.20689076     0.25000
C1253       C  0.75566209  0.60853906  0.20059806    -0.18300
C1254       C  0.72538597  0.59345530  0.19869088    -0.08300
C1255       C  0.79975748  0.64824235  0.21156734    -0.18600
C1256       C  0.81128598  0.63136482  0.21462099    -0.23400
C1257       C  0.83940312  0.64143017  0.22107878     0.27000
C1258       C  0.84463789  0.61973730  0.22565166    -0.20100
C1259       C  0.87047721  0.62719112  0.23166431    -0.09800
C1260       C  0.89210230  0.65669400  0.23329670    -0.10300
C1261       C  0.88693135  0.67865402  0.22887688    -0.03200
C1262       C  0.86084505  0.67113025  0.22279183    -0.18300
H1263       H  0.70928781  0.64196569  0.21134608     0.10700
H1264       H  0.76236256  0.66867907  0.21455655     0.10800
H1265       H  0.76801596  0.59841120  0.19775089     0.10500
H1266       H  0.71507042  0.57154871  0.19502426     0.11600
H1267       H  0.81122162  0.67135784  0.21381352     0.11700
H1268       H  0.79826349  0.60791145  0.21308709     0.13600
H1269       H  0.82863799  0.59670814  0.22452303     0.10100
H1270       H  0.87365617  0.60965180  0.23490512     0.12200
H1271       H  0.90336321  0.70158385  0.22983685     0.08800
H1272       H  0.85794033  0.68857679  0.21929233     0.11500
C1273       C  0.99824390  0.72326848  0.20533141    -0.03100
C1274       C  0.02238545  0.73137126  0.19799906    -0.05700
C1275       C  0.02324304  0.74255254  0.18676377    -0.20700
C1276       C  0.99975274  0.74529328  0.18248220     0.25000
C1277       C  0.97560450  0.73726911  0.18981921    -0.18300
C1278       C  0.97493483  0.72651757  0.20111972    -0.08300
C1279       C  0.00128162  0.75689100  0.17041566    -0.18600
C1280       C  0.97748239  0.74825365  0.16355803    -0.23400
C1281       C  0.97924793  0.75706452  0.15106300     0.27000
C1282       C  0.96027440  0.73626561  0.14292913    -0.20100
C1283       C  0.96204846  0.74315027  0.13102661    -0.09800
C1284       C  0.98220194  0.77143195  0.12690989    -0.10300
C1285       C  0.00035574  0.79269423  0.13520125    -0.03200
C1286       C  0.99913518  0.78552150  0.14712181    -0.18300
H1287       H  0.04077650  0.72934765  0.20098924     0.10700
H1288       H  0.04218032  0.74872484  0.18132831     0.10800
H1289       H  0.95740251  0.73970622  0.18692371     0.10500
H1290       H  0.95604305  0.72059319  0.20654853     0.11600
H1291       H  0.02280181  0.77100605  0.16671924     0.11700
H1292       H  0.95621161  0.73174274  0.16679261     0.13600
H1293       H  0.94470058  0.71419531  0.14573965     0.10100
H1294       H  0.94822088  0.72584821  0.12499538     0.12200
H1295       H  0.01554806  0.81487644  0.13258542     0.08800
H1296       H  0.01353623  0.80226935  0.15325963     0.11500
C1297       C  0.55908585  0.98687849  0.25866596    -0.03100
C1298       C  0.55829563  0.99653843  0.27007674    -0.05700
C1299       C  0.53158286  0.99049033  0.27506277    -0.20700
C1300       C  0.50543197  0.97526097  0.26862769     0.25000
C1301       C  0.50610656  0.96431704  0.25751226    -0.18300
C1302       C  0.53252284  0.96994380  0.25262033    -0.08300
C1303       C  0.47751451  0.97151860  0.27323418    -0.18600
C1304       C  0.45987170  0.97645677  0.26620569    -0.23400
C1305       C  0.43000375  0.97045731  0.26915096     0.27000
C1306       C  0.41774136  0.98329397  0.26204005    -0.20100
C1307       C  0.38796461  0.97383443  0.26258037    -0.09800
C1308       C  0.36970674  0.95133818  0.27026518    -0.10300
C1309       C  0.38217724  0.94002115  0.27808880    -0.03200
C1310       C  0.41218635  0.94946679  0.27752594    -0.18300
H1311       H  0.57834289  0.00952075  0.27498728     0.10700
H1312       H  0.53149860  0.99883006  0.28371118     0.10800
H1313       H  0.48614297  0.95180874  0.25248802     0.10500
H1314       H  0.53216173  0.96187702  0.24387336     0.11600
H1315       H  0.47197617  0.96551785  0.28233994     0.11700
H1316       H  0.46767112  0.98504750  0.25748544     0.13600
H1317       H  0.43090653  0.99948498  0.25552857     0.10100
H1318       H  0.37877391  0.98273122  0.25641283     0.12200
H1319       H  0.36836741  0.92221956  0.28391771     0.08800
H1320       H  0.42079383  0.93877081  0.28302343     0.11500
C1321       C  0.07617576  0.75384231  0.24842972    -0.03100
C1322       C  0.10009889  0.74929821  0.24762991    -0.05700
C1323       C  0.12691471  0.76893058  0.25271803    -0.20700
C1324       C  0.13075187  0.79368617  0.25883681     0.25000
C1325       C  0.10698131  0.79872728  0.25950000    -0.18300
C1326       C  0.07993940  0.77897758  0.25428830    -0.08300
C1327       C  0.16018072  0.81323900  0.26408253    -0.18600
C1328       C  0.16838296  0.83788992  0.27033394    -0.23400
C1329       C  0.19957525  0.85728834  0.27376970     0.27000
C1330       C  0.21214744  0.88783295  0.27281885    -0.20100
C1331       C  0.24262235  0.90605084  0.27310486    -0.09800
C1332       C  0.26079492  0.89397531  0.27461320    -0.10300
C1333       C  0.24813118  0.86389483  0.27687156    -0.03200
C1334       C  0.21775829  0.84570431  0.27658243    -0.18300
H1335       H  0.09804778  0.73026796  0.24313736     0.10700
H1336       H  0.14475913  0.76450020  0.25194614     0.10800
H1337       H  0.10894230  0.81758928  0.26405010     0.10500
H1338       H  0.06180362  0.78292969  0.25510946     0.11600
H1339       H  0.17671689  0.80737377  0.26218833     0.11700
H1340       H  0.15318485  0.84565441  0.27184213     0.13600
H1341       H  0.19860395  0.89732214  0.27078593     0.10100
H1342       H  0.25203760  0.92913623  0.27109371     0.12200
H1343       H  0.26180680  0.85410541  0.27784450     0.08800
H1344       H  0.20867633  0.82234521  0.27779127     0.11500
C1345       C  0.92566939  0.77991504  0.36509734    -0.03100
C1346       C  0.91468288  0.79862763  0.36258550    -0.05700
C1347       C  0.88459450  0.78741124  0.36144599    -0.20700
C1348       C  0.86493706  0.75731002  0.36317005     0.25000
C1349       C  0.87620136  0.73832628  0.36458915    -0.18300
C1350       C  0.90641435  0.74957904  0.36558614    -0.08300
C1351       C  0.83305988  0.74558217  0.36488532    -0.18600
C1352       C  0.82276116  0.76195174  0.36971389    -0.23400
C1353       C  0.79280992  0.74960992  0.37454878     0.27000
C1354       C  0.78872096  0.76468921  0.38378320    -0.20100
C1355       C  0.76187396  0.75274109  0.38948971    -0.09800
C1356       C  0.73822983  0.72562820  0.38594748    -0.10300
C1357       C  0.74172360  0.71124639  0.37626429    -0.03200
C1358       C  0.76882125  0.72305251  0.37063316    -0.18300
H1359       H  0.92931758  0.82213350  0.36219770     0.10700
H1360       H  0.87680199  0.80257329  0.35982698     0.10800
H1361       H  0.86157165  0.71503478  0.36581738     0.10500
H1362       H  0.91455212  0.73488367  0.36767488     0.11600
H1363       H  0.81860281  0.72212729  0.36386479     0.11700
H1364       H  0.83796089  0.78481542  0.37171946     0.13600
H1365       H  0.80673032  0.78530176  0.38691296     0.10100
H1366       H  0.75980815  0.76447206  0.39685627     0.12200
H1367       H  0.72384346  0.69034265  0.37332233     0.08800
H1368       H  0.77095225  0.71120903  0.36334129     0.11500
C1369       C  0.96681919  0.70139184  0.27804977    -0.03100
C1370       C  0.93994978  0.68778221  0.28396523    -0.05700
C1371       C  0.93773849  0.69707409  0.29522115    -0.20700
C1372       C  0.96250217  0.71946916  0.30093117     0.25000
C1373       C  0.98949320  0.73268131  0.29508542    -0.18300
C1374       C  0.99154992  0.72391551  0.28373698    -0.08300
C1375       C  0.95939857  0.73000993  0.31262966    -0.18600
C1376       C  0.98072325  0.74008528  0.32082728    -0.23400
C1377       C  0.97867756  0.75230896  0.33228176     0.27000
C1378       C  0.99279915  0.74898763  0.34211950    -0.20100
C1379       C  0.99253545  0.76149138  0.35288994    -0.09800
C1380       C  0.97874112  0.77824019  0.35399882    -0.10300
C1381       C  0.96494726  0.78190889  0.34408970    -0.03200
C1382       C  0.96468565  0.76889582  0.33337440    -0.18300
H1383       H  0.92048584  0.67055803  0.27974698     0.10700
H1384       H  0.91664214  0.68676027  0.29948516     0.10800
H1385       H  0.00886561  0.75046284  0.29911651     0.10500
H1386       H  0.01252289  0.73482694  0.27937813     0.11600
H1387       H  0.93871918  0.72871432  0.31464106     0.11700
H1388       H  0.00016547  0.73856207  0.31925115     0.13600
H1389       H  0.00388070  0.73645742  0.34148564     0.10100
H1390       H  0.00288052  0.75780606  0.36038595     0.12200
H1391       H  0.95478444  0.79529506  0.34456605     0.08800
H1392       H  0.95434782  0.77260778  0.32587333     0.11500
C1393       C  0.34460804  0.10267300  0.42593293    -0.03100
C1394       C  0.32607936  0.10330028  0.43457123    -0.05700
C1395       C  0.33179599  0.12985925  0.43957883    -0.20700
C1396       C  0.35655753  0.15629895  0.43633286     0.25000
C1397       C  0.37604605  0.15556705  0.42817196    -0.18300
C1398       C  0.36996134  0.12901347  0.42294420    -0.08300
C1399       C  0.35917842  0.18437205  0.44029100    -0.18600
C1400       C  0.38484299  0.20953391  0.44153713    -0.23400
C1401       C  0.38667147  0.23846592  0.44298625     0.27000
C1402       C  0.41088890  0.26148042  0.44873718    -0.20100
C1403       C  0.41555884  0.29013867  0.44838056    -0.09800
C1404       C  0.39643251  0.29622757  0.44201875    -0.10300
C1405       C  0.37154466  0.27308549  0.43675574    -0.03200
C1406       C  0.36652066  0.24444549  0.43731779    -0.18300
H1407       H  0.30617426  0.08346692  0.43696648     0.10700
H1408       H  0.31628633  0.12987726  0.44573422     0.10800
H1409       H  0.39500026  0.17564766  0.42528040     0.10500
H1410       H  0.38452103  0.12922577  0.41626431     0.11600
H1411       H  0.33896366  0.18440959  0.44191861     0.11700
H1412       H  0.40517494  0.20917376  0.44100954     0.13600
H1413       H  0.42685999  0.25749550  0.45306500     0.10100
H1414       H  0.43524403  0.30784949  0.45227656     0.12200
H1415       H  0.35690341  0.27749538  0.43160371     0.08800
H1416       H  0.34803472  0.22747522  0.43254193     0.11500
C1417       C  0.21936303  0.94285822  0.39724495    -0.03100
C1418       C  0.20038942  0.95249627  0.39323772    -0.05700
C1419       C  0.17424446  0.93334402  0.38753034    -0.20700
C1420       C  0.16601538  0.90387504  0.38569714     0.25000
C1421       C  0.18495147  0.89402723  0.38965716    -0.18300
C1422       C  0.21137869  0.91337274  0.39536847    -0.08300
C1423       C  0.13744275  0.88471009  0.37970568    -0.18600
C1424       C  0.12266621  0.85513334  0.37996218    -0.23400
C1425       C  0.09162252  0.83771136  0.37598830     0.27000
C1426       C  0.07239903  0.81256957  0.38233914    -0.20100
C1427       C  0.04219534  0.79919862  0.38055541    -0.09800
C1428       C  0.03071741  0.81020407  0.37215534    -0.10300
C1429       C  0.04994729  0.83338552  0.36493545    -0.03200
C1430       C  0.08023466  0.84709540  0.36683116    -0.18300
H1431       H  0.20584339  0.97507991  0.39439961     0.10700
H1432       H  0.16025295  0.94165756  0.38457852     0.10800
H1433       H  0.17977581  0.87164835  0.38823731     0.10500
H1434       H  0.22568154  0.90534467  0.39819458     0.11600
H1435       H  0.12675837  0.89574500  0.37581778     0.11700
H1436       H  0.13175877  0.84360179  0.38465351     0.13600
H1437       H  0.08056906  0.80469783  0.38934848     0.10100
H1438       H  0.02765905  0.78157832  0.38632105     0.12200
H1439       H  0.04148637  0.84243569  0.35851796     0.08800
H1440       H  0.09454473  0.86587495  0.36151956     0.11500
C1441       C  0.32289028  0.98499098  0.36875722    -0.03100
C1442       C  0.30440915  0.95525925  0.36584845    -0.05700
C1443       C  0.30296172  0.94524859  0.35440548    -0.20700
C1444       C  0.31964059  0.96459804  0.34544399     0.25000
C1445       C  0.33837795  0.99441423  0.34832146    -0.18300
C1446       C  0.33996863  0.00445155  0.35985512    -0.08300
C1447       C  0.31721036  0.95229341  0.33341799    -0.18600
C1448       C  0.32568554  0.96846285  0.32351772    -0.23400
C1449       C  0.32311292  0.95621496  0.31145907     0.27000
C1450       C  0.33800682  0.97589824  0.30230207    -0.20100
C1451       C  0.33606552  0.96594178  0.29081032    -0.09800
C1452       C  0.31898546  0.93600130  0.28812222    -0.10300
C1453       C  0.30399845  0.91614491  0.29719768    -0.03200
C1454       C  0.30596794  0.92606724  0.30874403    -0.18300
H1455       H  0.29098762  0.93952862  0.37245290     0.10700
H1456       H  0.28851189  0.92218130  0.35253608     0.10800
H1457       H  0.35222494  0.01004478  0.34180199     0.10500
H1458       H  0.35447369  0.02744856  0.36179122     0.11600
H1459       H  0.30753368  0.92870331  0.33283038     0.11700
H1460       H  0.33514123  0.99203198  0.32415790     0.13600
H1461       H  0.35118199  0.99919981  0.30403492     0.10100
H1462       H  0.34745187  0.98174446  0.28393748     0.12200
H1463       H  0.29081340  0.89293200  0.29535778     0.08800
H1464       H  0.29359498  0.90999905  0.31537661     0.11500
C1465       C  0.61014905  0.92339775  0.55127944    -0.03100
C1466       C  0.58298638  0.89973162  0.55460194    -0.05700
C1467       C  0.57197708  0.87237339  0.54929754    -0.20700
C1468       C  0.58797663  0.86774948  0.54064455     0.25000
C1469       C  0.61468808  0.89175471  0.53691906    -0.18300
C1470       C  0.62560721  0.91940695  0.54217389    -0.08300
C1471       C  0.57611859  0.83724370  0.53625900    -0.18600
C1472       C  0.59210563  0.82706667  0.53103152    -0.23400
C1473       C  0.58077745  0.79503060  0.52960115     0.27000
C1474       C  0.55064980  0.77460567  0.52858058    -0.20100
C1475       C  0.54029497  0.74462673  0.53002411    -0.09800
C1476       C  0.55986365  0.73454565  0.53218867    -0.10300
C1477       C  0.59000989  0.75447511  0.53199264    -0.03200
C1478       C  0.60041594  0.78451517  0.53062095    -0.18300
H1479       H  0.57045603  0.90219559  0.56152841     0.10700
H1480       H  0.55126732  0.85444317  0.55228517     0.10800
H1481       H  0.62737126  0.88929626  0.53008460     0.10500
H1482       H  0.64662424  0.93730830  0.53944920     0.11600
H1483       H  0.55382795  0.82166639  0.53876713     0.11700
H1484       H  0.61513158  0.84185453  0.52936120     0.13600
H1485       H  0.53489805  0.78177244  0.52730993     0.10100
H1486       H  0.51692838  0.72953776  0.53028451     0.12200
H1487       H  0.60538135  0.74706555  0.53386227     0.08800
H1488       H  0.62370654  0.79969446  0.53131094     0.11500
C1489       C  0.65826513  0.05073358  0.53451636    -0.03100
C1490       C  0.67600124  0.04714609  0.52633488    -0.05700
C1491       C  0.67572862  0.05426697  0.51451869    -0.20700
C1492       C  0.65809212  0.06556078  0.51058385     0.25000
C1493       C  0.64043949  0.06931795  0.51877796    -0.18300
C1494       C  0.64050843  0.06194661  0.53058171    -0.08300
C1495       C  0.65746748  0.07152885  0.49781485    -0.18600
C1496       C  0.64967315  0.09049279  0.49343487    -0.23400
C1497       C  0.64855979  0.09578732  0.48063049     0.27000
C1498       C  0.65229920  0.12288430  0.47683289    -0.20100
C1499       C  0.65123856  0.12851584  0.46487639    -0.09800
C1500       C  0.64578127  0.10692048  0.45651042    -0.10300
C1501       C  0.64130198  0.07959663  0.46027353    -0.03200
C1502       C  0.64274055  0.07406137  0.47218970    -0.18300
H1503       H  0.68979622  0.03839996  0.52902528     0.10700
H1504       H  0.68934754  0.05086886  0.50840631     0.10800
H1505       H  0.62592979  0.07716878  0.51607623     0.10500
H1506       H  0.62641771  0.06481415  0.53661911     0.11600
H1507       H  0.66475122  0.06054184  0.49183656     0.11700
H1508       H  0.64509074  0.10363406  0.49941395     0.13600
H1509       H  0.65645733  0.13988855  0.48313168     0.10100
H1510       H  0.65462570  0.14967016  0.46215015     0.12200
H1511       H  0.63720561  0.06273328  0.45391598     0.08800
H1512       H  0.63889767  0.05263443  0.47475243     0.11500
C1513       C  0.59326531  0.08107126  0.43819533    -0.03100
C1514       C  0.58038469  0.09405888  0.44474406    -0.05700
C1515       C  0.55043890  0.08435359  0.44348185    -0.20700
C1516       C  0.53272165  0.06141994  0.43569937     0.25000
C1517       C  0.54531596  0.04679137  0.42997741    -0.18300
C1518       C  0.57516292  0.05654913  0.43122621    -0.08300
C1519       C  0.50255684  0.05580242  0.43290723    -0.18600
C1520       C  0.48331522  0.03440619  0.42566780    -0.23400
C1521       C  0.45513197  0.03166000  0.42155685     0.27000
C1522       C  0.43328362  0.00464364  0.41700182    -0.20100
C1523       C  0.40715417  0.00144777  0.41244688    -0.09800
C1524       C  0.40232100  0.02534572  0.41219799    -0.10300
C1525       C  0.42428013  0.05248904  0.41666036    -0.03200
C1526       C  0.45035251  0.05564754  0.42126616    -0.18300
H1527       H  0.59384892  0.11328064  0.45004038     0.10700
H1528       H  0.54148236  0.09600740  0.44808052     0.10800
H1529       H  0.53296867  0.02898180  0.42394776     0.10500
H1530       H  0.58456926  0.04615378  0.42606052     0.11600
H1531       H  0.49649709  0.07086799  0.43668301     0.11700
H1532       H  0.48805922  0.01793791  0.42245781     0.13600
H1533       H  0.43645465  0.98587082  0.41695760     0.10100
H1534       H  0.39076307  0.98024143  0.40909083     0.12200
H1535       H  0.42135994  0.07141227  0.41658538     0.08800
H1536       H  0.46689924  0.07709298  0.42430683     0.11500
C1537       C  0.55183709  0.99454385  0.56479745    -0.03100
C1538       C  0.52849819  0.96557797  0.56401559    -0.05700
C1539       C  0.50173459  0.95941831  0.55914407    -0.20700
C1540       C  0.49742105  0.98193970  0.55480587     0.25000
C1541       C  0.52065836  0.01113315  0.55569652    -0.18300
C1542       C  0.54757088  0.01734585  0.56068147    -0.08300
C1543       C  0.46815354  0.97323033  0.54961390    -0.18600
C1544       C  0.45996588  0.99134000  0.54466699    -0.23400
C1545       C  0.42920345  0.98013562  0.54067145     0.27000
C1546       C  0.41608752  0.99731831  0.54240730    -0.20100
C1547       C  0.38573845  0.98494551  0.54112153    -0.09800
C1548       C  0.36816615  0.95542729  0.53782793    -0.10300
C1549       C  0.38168545  0.93925580  0.53488293    -0.03200
C1550       C  0.41194360  0.95154410  0.53617988    -0.18300
H1551       H  0.53093448  0.94745955  0.56711711     0.10700
H1552       H  0.48433259  0.93676808  0.55867321     0.10800
H1553       H  0.51837537  0.02925416  0.55255355     0.10500
H1554       H  0.56519189  0.03989462  0.56110224     0.11600
H1555       H  0.45188637  0.95012010  0.55025149     0.11700
H1556       H  0.47489973  0.01479836  0.54445551     0.13600
H1557       H  0.42889506  0.01948966  0.54572964     0.10100
H1558       H  0.37568197  0.99757060  0.54375623     0.12200
H1559       H  0.36853145  0.91624614  0.53262563     0.08800
H1560       H  0.42149646  0.93801384  0.53432425     0.11500
C1561       C  0.31005782  0.93718810  0.52324143    -0.03100
C1562       C  0.29085321  0.94748042  0.52046317    -0.05700
C1563       C  0.28801867  0.95485475  0.50894667    -0.20700
C1564       C  0.30417286  0.95202144  0.49983993     0.25000
C1565       C  0.32375793  0.94201688  0.50265209    -0.18300
C1566       C  0.32658286  0.93464861  0.51422405    -0.08300
C1567       C  0.30034104  0.96050929  0.48770487    -0.18600
C1568       C  0.30848345  0.95233877  0.47788112    -0.23400
C1569       C  0.30500661  0.96074005  0.46569017     0.27000
C1570       C  0.32081599  0.95688397  0.45673155    -0.20100
C1571       C  0.31843419  0.96393538  0.44513022    -0.09800
C1572       C  0.29989996  0.97490675  0.44204921    -0.10300
C1573       C  0.28375289  0.97858806  0.45096126    -0.03200
C1574       C  0.28623266  0.97158555  0.46265802    -0.18300
H1575       H  0.27823975  0.95017934  0.52727574     0.10700
H1576       H  0.27302497  0.96275999  0.50714227     0.10800
H1577       H  0.33729623  0.94018409  0.49604570     0.10500
H1578       H  0.34142048  0.92664623  0.51609123     0.11600
H1579       H  0.29001959  0.97377263  0.48694493     0.11700
H1580       H  0.31860501  0.93890050  0.47867927     0.13600
H1581       H  0.33534762  0.94849740  0.45872299     0.10100
H1582       H  0.33129636  0.96082119  0.43855554     0.12200
H1583       H  0.26929486  0.98700523  0.44890696     0.08800
H1584       H  0.27311953  0.97436179  0.46918634     0.11500
C1585       C  0.03270534  0.24646209  0.61162610    -0.03100
C1586       C  0.04737211  0.27686429  0.61348940    -0.05700
C1587       C  0.07803526  0.29300357  0.61364178    -0.20700
C1588       C  0.09443526  0.27892652  0.61214410     0.25000
C1589       C  0.07954539  0.24814167  0.61133370    -0.18300
C1590       C  0.04900573  0.23214287  0.61101691    -0.08300
C1591       C  0.12613746  0.29679481  0.60937784    -0.18600
C1592       C  0.14518696  0.28707769  0.61079868    -0.23400
C1593       C  0.17447359  0.30160049  0.60521234     0.27000
C1594       C  0.19789362  0.30064461  0.61065693    -0.20100
C1595       C  0.22480278  0.31157709  0.60493353    -0.09800
C1596       C  0.22829271  0.32256542  0.59348400    -0.10300
C1597       C  0.20493394  0.32366099  0.58807190    -0.03200
C1598       C  0.17841319  0.31357116  0.59390390    -0.18300
H1599       H  0.03527143  0.28843641  0.61376030     0.10700
H1600       H  0.08895334  0.31668689  0.61420472     0.10800
H1601       H  0.09128612  0.23650324  0.60991645     0.10500
H1602       H  0.03810695  0.20873776  0.60941868     0.11600
H1603       H  0.13363122  0.31802261  0.60530370     0.11700
H1604       H  0.13884757  0.26726174  0.61580345     0.13600
H1605       H  0.19525053  0.29118595  0.61930421     0.10100
H1606       H  0.24252860  0.31053934  0.60927931     0.12200
H1607       H  0.20718958  0.33228542  0.57928015     0.08800
H1608       H  0.16060787  0.31399879  0.58934749     0.11500
C1609       C  0.92538964  0.20876731  0.60611843    -0.03100
C1610       C  0.90884988  0.18902775  0.61498349    -0.05700
C1611       C  0.87823652  0.17274623  0.61406527    -0.20700
C1612       C  0.86368701  0.17608496  0.60432760     0.25000
C1613       C  0.88038614  0.19777395  0.59599148    -0.18300
C1614       C  0.91083699  0.21383937  0.59690102    -0.08300
C1615       C  0.83221168  0.15393152  0.60225899    -0.18600
C1616       C  0.81531600  0.15685909  0.59406421    -0.23400
C1617       C  0.78639963  0.13247453  0.59001434     0.27000
C1618       C  0.76794040  0.13937613  0.58355439    -0.20100
C1619       C  0.74204249  0.11725248  0.57848814    -0.09800
C1620       C  0.73420042  0.08764749  0.57960832    -0.10300
C1621       C  0.75239284  0.08063794  0.58622284    -0.03200
C1622       C  0.77818359  0.10274559  0.59136442    -0.18300
H1623       H  0.91964045  0.18427021  0.62203026     0.10700
H1624       H  0.86604216  0.15616501  0.62059781     0.10800
H1625       H  0.87054239  0.20096338  0.58823191     0.10500
H1626       H  0.92324125  0.22861168  0.58985804     0.11600
H1627       H  0.82325352  0.13378650  0.60728609     0.11700
H1628       H  0.82314944  0.17784581  0.58978081     0.13600
H1629       H  0.77380704  0.16204772  0.58227039     0.10100
H1630       H  0.72841835  0.12338336  0.57351852     0.12200
H1631       H  0.74680823  0.05800512  0.58735966     0.08800
H1632       H  0.79202228  0.09638205  0.59600222     0.11500
C1633       C  0.59281801  0.08931851  0.69814205    -0.03100
C1634       C  0.57214961  0.05928251  0.69818859    -0.05700
C1635       C  0.54233989  0.04970657  0.69677571    -0.20700
C1636       C  0.53266560  0.07002817  0.69548319     0.25000
C1637       C  0.55377667  0.09999906  0.69439664    -0.18300
C1638       C  0.58349476  0.10952073  0.69592150    -0.08300
C1639       C  0.50072283  0.05940676  0.69654981    -0.18600
C1640       C  0.49037097  0.07672687  0.70033282    -0.23400
C1641       C  0.45996105  0.06570693  0.70454383     0.27000
C1642       C  0.45524640  0.08368543  0.71222472    -0.20100
C1643       C  0.42841909  0.07319216  0.71781607    -0.09800
C1644       C  0.40538000  0.04466423  0.71565771    -0.10300
C1645       C  0.40913214  0.02732519  0.70729556    -0.03200
C1646       C  0.43626962  0.03767891  0.70181005    -0.18300
H1647       H  0.57886395  0.04340875  0.70017318     0.10700
H1648       H  0.52667761  0.02649525  0.69754085     0.10800
H1649       H  0.54750989  0.11636928  0.69291407     0.10500
H1650       H  0.59909119  0.13284616  0.69608497     0.11600
H1651       H  0.48591315  0.03596628  0.69577587     0.11700
H1652       H  0.50565152  0.09976307  0.70192423     0.13600
H1653       H  0.47288396  0.10547576  0.71439437     0.10100
H1654       H  0.42598414  0.08705350  0.72416614     0.12200
H1655       H  0.39164968  0.00519760  0.70550504     0.08800
H1656       H  0.43869034  0.02343211  0.69568749     0.11500
C1657       C  0.65217159  0.10565606  0.68589850    -0.03100
C1658       C  0.67011472  0.09427501  0.68259577    -0.05700
C1659       C  0.67196549  0.08779766  0.67086018    -0.20700
C1660       C  0.65535824  0.09183387  0.66220646     0.25000
C1661       C  0.63830416  0.10428955  0.66540068    -0.18300
C1662       C  0.63699384  0.11139464  0.67710046    -0.08300
C1663       C  0.65639002  0.08302625  0.64994127    -0.18600
C1664       C  0.63290248  0.07161905  0.64274705    -0.23400
C1665       C  0.63324675  0.06114434  0.63069438     0.27000
C1666       C  0.60741903  0.03789212  0.62594449    -0.20100
C1667       C  0.60701863  0.02758286  0.61460540    -0.09800
C1668       C  0.63227487  0.04092076  0.60767141    -0.10300
C1669       C  0.65799092  0.06451781  0.61235188    -0.03200
C1670       C  0.65854767  0.07441461  0.62375849    -0.18300
H1671       H  0.68193871  0.08941332  0.68915056     0.10700
H1672       H  0.68556160  0.07857140  0.66859621     0.10800
H1673       H  0.62610478  0.10870259  0.65885825     0.10500
H1674       H  0.62400655  0.12128100  0.67924079     0.11600
H1675       H  0.67631755  0.08376403  0.64710233     0.11700
H1676       H  0.61213789  0.06804369  0.64605422     0.13600
H1677       H  0.58756818  0.02749290  0.63107148     0.10100
H1678       H  0.58683443  0.00955415  0.61118062     0.12200
H1679       H  0.67777959  0.07525641  0.60719412     0.08800
H1680       H  0.67863166  0.09283503  0.62702926     0.11500
C1681       C  0.69690002  0.77330895  0.09337762    -0.03100
C1682       C  0.72185466  0.79815794  0.08903202    -0.05700
C1683       C  0.73340753  0.82515139  0.09473868    -0.20700
C1684       C  0.71995836  0.82813468  0.10477691     0.25000
C1685       C  0.69587604  0.80298784  0.10951695    -0.18300
C1686       C  0.68455141  0.77575291  0.10388968    -0.08300
C1687       C  0.73077504  0.85812036  0.10951296    -0.18600
C1688       C  0.71309068  0.86661130  0.11444312    -0.23400
C1689       C  0.72197210  0.89809174  0.11578658     0.27000
C1690       C  0.75131442  0.92011797  0.11753499    -0.20100
C1691       C  0.75955511  0.94973562  0.11643642    -0.09800
C1692       C  0.73860357  0.95778890  0.11377887    -0.10300
C1693       C  0.70908869  0.93601165  0.11291942    -0.03200
C1694       C  0.70079831  0.90640573  0.11405473    -0.18300
H1695       H  0.73202516  0.79691446  0.08101455     0.10700
H1696       H  0.75212768  0.84410045  0.09096455     0.10800
H1697       H  0.68546835  0.80439825  0.11742493     0.10500
H1698       H  0.66538059  0.75693630  0.10747106     0.11600
H1699       H  0.75289632  0.87468870  0.10717619     0.11700
H1700       H  0.69015849  0.85053302  0.11571316     0.13600
H1701       H  0.76809749  0.91451755  0.11920285     0.10100
H1702       H  0.78253240  0.96624340  0.11687796     0.12200
H1703       H  0.69273338  0.94182209  0.11061144     0.08800
H1704       H  0.67805533  0.88990375  0.11271712     0.11500
C1705       C  0.93222429  0.74866327  0.10749483    -0.03100
C1706       C  0.92017223  0.76433518  0.11262285    -0.05700
C1707       C  0.89056041  0.75543747  0.11080237    -0.20700
C1708       C  0.87244991  0.73070549  0.10385856     0.25000
C1709       C  0.88411096  0.71352620  0.09973197    -0.18300
C1710       C  0.91365886  0.72259394  0.10145428    -0.08300
C1711       C  0.84263723  0.72512593  0.10043707    -0.18600
C1712       C  0.82536123  0.70550756  0.09220547    -0.23400
C1713       C  0.79749065  0.70271876  0.08771466     0.27000
C1714       C  0.77649329  0.67611402  0.08257307    -0.20100
C1715       C  0.75069900  0.67300308  0.07767758    -0.09800
C1716       C  0.74547024  0.69665065  0.07762609    -0.10300
C1717       C  0.76666115  0.72341853  0.08265851    -0.03200
C1718       C  0.79233103  0.72644290  0.08764237    -0.18300
H1719       H  0.93409656  0.78465578  0.11723708     0.10700
H1720       H  0.88223018  0.76892735  0.11426697     0.10800
H1721       H  0.87113558  0.69371999  0.09474688     0.10500
H1722       H  0.92246735  0.71003120  0.09748256     0.11600
H1723       H  0.83534263  0.73896341  0.10447263     0.11700
H1724       H  0.83166669  0.69081372  0.08831133     0.13600
H1725       H  0.78003355  0.65757001  0.08237293     0.10100
H1726       H  0.73486148  0.65206786  0.07393083     0.12200
H1727       H  0.76337865  0.74212077  0.08279578     0.08800
H1728       H  0.80831816  0.74757374  0.09116184     0.11500
C1729       C  0.65148376  0.58565670  0.18734127    -0.03100
C1730       C  0.63175626  0.59543361  0.18485832    -0.05700
C1731       C  0.62967497  0.60462594  0.17357605    -0.20700
C1732       C  0.64726237  0.60437613  0.16444270     0.25000
C1733       C  0.66731273  0.59480829  0.16697691    -0.18300
C1734       C  0.66929006  0.58551263  0.17830021    -0.08300
C1735       C  0.64410244  0.61488393  0.15262132    -0.18600
C1736       C  0.65592856  0.61187027  0.14262798    -0.23400
C1737       C  0.65249641  0.62235584  0.13082674     0.27000
C1738       C  0.66968178  0.62196632  0.12156380    -0.20100
C1739       C  0.66731290  0.63126469  0.11032553    -0.09800
C1740       C  0.64758389  0.64122614  0.10798741    -0.10300
C1741       C  0.63023099  0.64152999  0.11720041    -0.03200
C1742       C  0.63252852  0.63212773  0.12845777    -0.18300
H1743       H  0.61800462  0.59606532  0.19169880     0.10700
H1744       H  0.61414199  0.61197814  0.17198031     0.10800
H1745       H  0.68171032  0.59458822  0.16036691     0.10500
H1746       H  0.68442540  0.57775154  0.17994451     0.11600
H1747       H  0.63110542  0.62551420  0.15229156     0.11700
H1748       H  0.66896885  0.60126985  0.14295694     0.13600
H1749       H  0.68517281  0.61450327  0.12302849     0.10100
H1750       H  0.68111446  0.63076384  0.10346471     0.12200
H1751       H  0.61473201  0.64894487  0.11570636     0.08800
H1752       H  0.61828711  0.63234906  0.13513860     0.11500
C1753       C  0.70964675  0.60621349  0.94269082    -0.03100
C1754       C  0.71392240  0.58251424  0.94504657    -0.05700
C1755       C  0.74222135  0.58672027  0.94571883    -0.20700
C1756       C  0.76676715  0.61468931  0.94405487     0.25000
C1757       C  0.76239179  0.63874040  0.94245410    -0.18300
C1758       C  0.73405969  0.63444071  0.94170895    -0.08300
C1759       C  0.79574797  0.61710507  0.94212910    -0.18600
C1760       C  0.82146932  0.64249416  0.94268024    -0.23400
C1761       C  0.84919431  0.64575023  0.93802981     0.27000
C1762       C  0.87609667  0.66827795  0.94232933    -0.20100
C1763       C  0.90240149  0.67458296  0.93696202    -0.09800
C1764       C  0.90223122  0.65883297  0.92701523    -0.10300
C1765       C  0.87538241  0.63554950  0.92300112    -0.03200
C1766       C  0.84919056  0.62904806  0.92843554    -0.18300
H1767       H  0.69540685  0.56038967  0.94534843     0.10700
H1768       H  0.74489116  0.56776718  0.94680693     0.10800
H1769       H  0.78055486  0.66051325  0.94081743     0.10500
H1770       H  0.73117390  0.65282891  0.93948826     0.11600
H1771       H  0.79566063  0.59722562  0.93956279     0.11700
H1772       H  0.82227448  0.66193824  0.94626998     0.13600
H1773       H  0.87668345  0.68162792  0.94963896     0.10100
H1774       H  0.92269005  0.69276595  0.94022287     0.12200
H1775       H  0.87446701  0.62304910  0.91533393     0.08800
H1776       H  0.82891199  0.61204116  0.92465722     0.11500
C1777       C  0.65297910  0.59349493  0.95611506    -0.03100
C1778       C  0.66006082  0.57839460  0.96442800    -0.05700
C1779       C  0.65938937  0.58367904  0.97642971    -0.20700
C1780       C  0.65226799  0.60462604  0.98032858     0.25000
C1781       C  0.64443224  0.61914926  0.97195591    -0.18300
C1782       C  0.64470975  0.61353728  0.95999421    -0.08300
C1783       C  0.65280496  0.61055895  0.99313856    -0.18600
C1784       C  0.65933336  0.63701393  0.99747345    -0.23400
C1785       C  0.66103411  0.64392759  0.01023307     0.27000
C1786       C  0.67836737  0.67320909  0.01389966    -0.20100
C1787       C  0.67997728  0.68090342  0.02573342    -0.09800
C1788       C  0.66382448  0.65952091  0.03421065    -0.10300
C1789       C  0.64627621  0.63019038  0.03053965    -0.03200
C1790       C  0.64494754  0.62243924  0.01871086    -0.18300
H1791       H  0.66612290  0.56257845  0.96163312     0.10700
H1792       H  0.66509709  0.57186119  0.98268309     0.10800
H1793       H  0.63794552  0.63474777  0.97461375     0.10500
H1794       H  0.63913903  0.62536806  0.95369842     0.11600
H1795       H  0.64961312  0.59318606  0.99912919     0.11700
H1796       H  0.66529259  0.65505363  0.99142296     0.13600
H1797       H  0.69081793  0.69027396  0.00756140     0.10100
H1798       H  0.69356035  0.70368967  0.02821815     0.12200
H1799       H  0.63342099  0.61314951  0.03682338     0.08800
H1800       H  0.63078319  0.59977908  0.01622251     0.11500
C1801       C  0.07447819  0.38453590  0.05511716    -0.03100
C1802       C  0.09409605  0.41495308  0.05541225    -0.05700
C1803       C  0.11977602  0.42742915  0.04882109    -0.20700
C1804       C  0.12667160  0.40986094  0.04184168     0.25000
C1805       C  0.10640363  0.37959957  0.04108934    -0.18300
C1806       C  0.08064556  0.36708801  0.04768586    -0.08300
C1807       C  0.15581165  0.42381174  0.03605259    -0.18600
C1808       C  0.17003176  0.40920558  0.03359089    -0.23400
C1809       C  0.20189132  0.42448257  0.03101514     0.27000
C1810       C  0.21839347  0.41243503  0.03546158    -0.20100
C1811       C  0.24894966  0.42844584  0.03519417    -0.09800
C1812       C  0.26358630  0.45636509  0.03008385    -0.10300
C1813       C  0.24713423  0.46756993  0.02483108    -0.03200
C1814       C  0.21649645  0.45173931  0.02524837    -0.18300
H1815       H  0.08996112  0.42912123  0.06095046     0.10700
H1816       H  0.13482541  0.45081211  0.04950544     0.10800
H1817       H  0.11041767  0.36544864  0.03550899     0.10500
H1818       H  0.06578597  0.34366023  0.04710155     0.11600
H1819       H  0.16752283  0.44756056  0.03532034     0.11700
H1820       H  0.15944450  0.38585832  0.03534684     0.13600
H1821       H  0.20770419  0.39153916  0.03996716     0.10100
H1822       H  0.26114300  0.41994131  0.03975960     0.12200
H1823       H  0.25804785  0.48943229  0.02112242     0.08800
H1824       H  0.20439700  0.46138477  0.02150957     0.11500
C1825       C  0.55990304  0.61400841  0.06749428    -0.03100
C1826       C  0.53750556  0.61956653  0.07064597    -0.05700
C1827       C  0.50965795  0.60352337  0.06569623    -0.20700
C1828       C  0.50324824  0.58150476  0.05737213     0.25000
C1829       C  0.52522257  0.57479576  0.05459767    -0.18300
C1830       C  0.55329162  0.59085063  0.05968268    -0.08300
C1831       C  0.47395414  0.56792402  0.05151365    -0.18600
C1832       C  0.46269041  0.54521824  0.04389243    -0.23400
C1833       C  0.43287822  0.53389092  0.03872041     0.27000
C1834       C  0.41394924  0.50355901  0.03719675    -0.20100
C1835       C  0.38429114  0.49248686  0.03433487    -0.09800
C1836       C  0.37336339  0.51169983  0.03284108    -0.10300
C1837       C  0.39299765  0.54204845  0.03316525    -0.03200
C1838       C  0.42241561  0.55304522  0.03599707    -0.18300
H1839       H  0.54178357  0.63708923  0.07670241     0.10700
H1840       H  0.49325555  0.60910106  0.06812428     0.10800
H1841       H  0.52129180  0.55804302  0.04823421     0.10500
H1842       H  0.57019775  0.58621241  0.05703437     0.11600
H1843       H  0.46044220  0.57731088  0.05380722     0.11700
H1844       H  0.47426951  0.53358294  0.04202247     0.13600
H1845       H  0.42157772  0.48834718  0.03905080     0.10100
H1846       H  0.36950302  0.46899153  0.03428287     0.12200
H1847       H  0.38508107  0.55729873  0.03203469     0.08800
H1848       H  0.43664714  0.57658004  0.03659000     0.11500
C1849       C  0.28969887  0.26162119  0.88953766    -0.03100
C1850       C  0.26957548  0.23647587  0.89571835    -0.05700
C1851       C  0.26313034  0.20860627  0.89207639    -0.20700
C1852       C  0.27624648  0.20498573  0.88207720     0.25000
C1853       C  0.29497186  0.22984453  0.87540577    -0.18300
C1854       C  0.30168912  0.25796873  0.87912737    -0.08300
C1855       C  0.27268919  0.17559236  0.87991445    -0.18600
C1856       C  0.27495093  0.16522647  0.86944110    -0.23400
C1857       C  0.27198762  0.13572961  0.86873381     0.27000
C1858       C  0.25107433  0.11402822  0.86131595    -0.20100
C1859       C  0.24441707  0.08474796  0.86239678    -0.09800
C1860       C  0.25890164  0.07702468  0.87081595    -0.10300
C1861       C  0.28173009  0.09933356  0.87739501    -0.03200
C1862       C  0.28815299  0.12834885  0.87639233    -0.18300
H1863       H  0.25980098  0.23835874  0.90373743     0.10700
H1864       H  0.24862956  0.18982149  0.89736511     0.10800
H1865       H  0.30577038  0.22780204  0.86774356     0.10500
H1866       H  0.31738376  0.27687789  0.87419814     0.11600
H1867       H  0.26750957  0.16131439  0.88749591     0.11700
H1868       H  0.27727436  0.17743444  0.86146504     0.13600
H1869       H  0.23843700  0.11932090  0.85532136     0.10100
H1870       H  0.22647616  0.06794373  0.85732363     0.12200
H1871       H  0.29340782  0.09402184  0.88387063     0.08800
H1872       H  0.30478491  0.14485401  0.88203792     0.11500
C1873       C  0.41424370  0.43240030  0.91034314    -0.03100
C1874       C  0.42359263  0.46133939  0.90685561    -0.05700
C1875       C  0.45032286  0.48451030  0.91086259    -0.20700
C1876       C  0.46799368  0.47940969  0.91864035     0.25000
C1877       C  0.45853220  0.45043029  0.92219387    -0.18300
C1878       C  0.43200491  0.42721488  0.91805435    -0.08300
C1879       C  0.49704489  0.50447306  0.92208857    -0.18600
C1880       C  0.51179587  0.50508822  0.93189111    -0.23400
C1881       C  0.54246219  0.52862025  0.93446166     0.27000
C1882       C  0.55962154  0.52247843  0.94213989    -0.20100
C1883       C  0.58967447  0.54222276  0.94340875    -0.09800
C1884       C  0.60304646  0.56847932  0.93701571    -0.10300
C1885       C  0.58551217  0.57576973  0.93014289    -0.03200
C1886       C  0.55551277  0.55624306  0.92895918    -0.18300
H1887       H  0.41042365  0.46602461  0.90091107     0.10700
H1888       H  0.45725272  0.50656138  0.90786673     0.10800
H1889       H  0.47185505  0.44542094  0.92788889     0.10500
H1890       H  0.42532045  0.40514269  0.92093968     0.11600
H1891       H  0.50671476  0.52271743  0.91601907     0.11700
H1892       H  0.50185751  0.48674424  0.93792998     0.13600
H1893       H  0.55012100  0.50158216  0.94663091     0.10100
H1894       H  0.60277191  0.53592104  0.94865148     0.12200
H1895       H  0.59534194  0.59603498  0.92519652     0.08800
H1896       H  0.54301069  0.56264129  0.92342703     0.11500
C1897       C  0.31420074  0.39317672  0.94056689    -0.03100
C1898       C  0.32829350  0.42380548  0.94187268    -0.05700
C1899       C  0.33038078  0.43648714  0.95283200    -0.20700
C1900       C  0.31881867  0.41906028  0.96287235     0.25000
C1901       C  0.30467461  0.38827909  0.96159815    -0.18300
C1902       C  0.30233827  0.37553132  0.95055307    -0.08300
C1903       C  0.32152365  0.43426084  0.97426687    -0.18600
C1904       C  0.31583842  0.42138388  0.98491204    -0.23400
C1905       C  0.31812255  0.43715570  0.99609873     0.27000
C1906       C  0.30249823  0.42065848  0.00588802    -0.20100
C1907       C  0.30332855  0.43442719  0.01646931    -0.09800
C1908       C  0.31992622  0.46504572  0.01756275    -0.10300
C1909       C  0.33646001  0.48159673  0.00795434    -0.03200
C1910       C  0.33563112  0.46786082  0.99733431    -0.18300
H1911       H  0.33760401  0.43809275  0.93437512     0.10700
H1912       H  0.34123967  0.46017688  0.95346046     0.10800
H1913       H  0.29499994  0.37382640  0.96899186     0.10500
H1914       H  0.29146051  0.35186511  0.94984396     0.11600
H1915       H  0.32844394  0.45739145  0.97373548     0.11700
H1916       H  0.30833008  0.39816160  0.98557788     0.13600
H1917       H  0.28922999  0.39700285  0.00530168     0.10100
H1918       H  0.29105044  0.42109885  0.02382237     0.12200
H1919       H  0.34951099  0.50524716  0.00860752     0.08800
H1920       H  0.34887883  0.48142584  0.99019157     0.11500
C1921       C  0.01206200  0.43198733  0.75748057    -0.03100
C1922       C  0.01931387  0.43448550  0.76944514    -0.05700
C1923       C  0.02950150  0.46132342  0.77530165    -0.20700
C1924       C  0.03148662  0.48568387  0.76940399     0.25000
C1925       C  0.02391564  0.48299210  0.75747521    -0.18300
C1926       C  0.01458526  0.45655711  0.75156786    -0.08300
C1927       C  0.04346088  0.51443497  0.77544425    -0.18600
C1928       C  0.03273354  0.53246749  0.77339952    -0.23400
C1929       C  0.04754545  0.56379390  0.77705156     0.27000
C1930       C  0.03112138  0.57805394  0.77755109    -0.20100
C1931       C  0.04506541  0.60868972  0.77824901    -0.09800
C1932       C  0.07565705  0.62553811  0.77826042    -0.10300
C1933       C  0.09208838  0.61134123  0.77856577    -0.03200
C1934       C  0.07818500  0.58070837  0.77807984    -0.18300
H1935       H  0.01759406  0.41587225  0.77419353     0.10700
H1936       H  0.03559556  0.46302138  0.78445590     0.10800
H1937       H  0.02590985  0.50158484  0.75261916     0.10500
H1938       H  0.00897305  0.45522251  0.74236559     0.11600
H1939       H  0.06172579  0.52101119  0.78143387     0.11700
H1940       H  0.01281158  0.52433213  0.76823745     0.13600
H1941       H  0.00754070  0.56558789  0.77666534     0.10100
H1942       H  0.03205513  0.61929982  0.77770585     0.12200
H1943       H  0.11574076  0.62405546  0.77827779     0.08800
H1944       H  0.09162165  0.57062449  0.77746755     0.11500
C1945       C  0.89077800  0.26372548  0.73307630    -0.03100
C1946       C  0.88653103  0.23533768  0.73170789    -0.05700
C1947       C  0.86055255  0.21289262  0.72678377    -0.20700
C1948       C  0.83839921  0.21835418  0.72296640     0.25000
C1949       C  0.84260372  0.24673368  0.72439494    -0.18300
C1950       C  0.86846574  0.26910203  0.72936385    -0.08300
C1951       C  0.81034279  0.19351623  0.71845859    -0.18600
C1952       C  0.79137359  0.19700169  0.71160348    -0.23400
C1953       C  0.76105683  0.17300532  0.70879497     0.27000
C1954       C  0.74496620  0.17754010  0.69999217    -0.20100
C1955       C  0.71489724  0.15793302  0.69852946    -0.09800
C1956       C  0.70036064  0.13353297  0.70591970    -0.10300
C1957       C  0.71678080  0.12792639  0.71415976    -0.03200
C1958       C  0.74669654  0.14737654  0.71561753    -0.18300
H1959       H  0.90330777  0.23046029  0.73441278     0.10700
H1960       H  0.85775952  0.19116456  0.72593639     0.10800
H1961       H  0.82573878  0.25167683  0.72195701     0.10500
H1962       H  0.87098522  0.29070312  0.73026739     0.11600
H1963       H  0.80527705  0.17164381  0.72100998     0.11700
H1964       H  0.79781953  0.21862954  0.70818277     0.13600
H1965       H  0.75536356  0.19711811  0.69463470     0.10100
H1966       H  0.70267906  0.16305357  0.69225014     0.12200
H1967       H  0.70602550  0.10933989  0.72002173     0.08800
H1968       H  0.75779466  0.14306985  0.72264539     0.11500
C1969       C  0.98797722  0.31126907  0.70138366    -0.03100
C1970       C  0.97574634  0.28087861  0.69976086    -0.05700
C1971       C  0.97379773  0.26913975  0.68863409    -0.20700
C1972       C  0.98358251  0.28725703  0.67872692     0.25000
C1973       C  0.99580498  0.31777369  0.68026351    -0.18300
C1974       C  0.99807643  0.32965490  0.69150877    -0.08300
C1975       C  0.98174823  0.27317895  0.66718183    -0.18600
C1976       C  0.98270876  0.28525740  0.65664610    -0.23400
C1977       C  0.98074760  0.27006883  0.64535045     0.27000
C1978       C  0.97050365  0.27743480  0.63524120    -0.20100
C1979       C  0.96898513  0.26399822  0.62446649    -0.09800
C1980       C  0.97827072  0.24338532  0.62354535    -0.10300
C1981       C  0.98862280  0.23605717  0.63358378    -0.03200
C1982       C  0.98983266  0.24917123  0.64437052    -0.18300
H1983       H  0.96787443  0.26602096  0.70715130     0.10700
H1984       H  0.96451244  0.24563921  0.68777302     0.10800
H1985       H  0.00415656  0.33257508  0.67288789     0.10500
H1986       H  0.00756788  0.35314091  0.69247177     0.11600
H1987       H  0.97811139  0.25100730  0.66746684     0.11700
H1988       H  0.98368821  0.30630095  0.65620999     0.13600
H1989       H  0.96365786  0.29363638  0.63568672     0.10100
H1990       H  0.96130302  0.27021812  0.61677271     0.12200
H1991       H  0.99602751  0.22031598  0.63301613     0.08800
H1992       H  0.99869185  0.24344875  0.65181644     0.11500
C1993       C  0.97616128  0.30170122  0.77444886    -0.03100
C1994       C  0.99573005  0.29128856  0.77626734    -0.05700
C1995       C  0.99686073  0.27906616  0.78696721    -0.20700
C1996       C  0.97897595  0.27737241  0.79628737     0.25000
C1997       C  0.95974375  0.28831501  0.79467775    -0.18300
C1998       C  0.95824310  0.30023237  0.78381338    -0.08300
C1999       C  0.97994994  0.26226274  0.80716678    -0.18600
C2000       C  0.97573413  0.26916280  0.81806459    -0.23400
C2001       C  0.97926030  0.25439305  0.82861018     0.27000
C2002       C  0.99109643  0.27031569  0.83902758    -0.20100
C2003       C  0.99598906  0.25707365  0.84881202    -0.09800
C2004       C  0.98849243  0.22748611  0.84841047    -0.10300
C2005       C  0.97585341  0.21138799  0.83812123    -0.03200
C2006       C  0.97127726  0.22460682  0.82834885    -0.18300
H2007       H  0.00988996  0.29198845  0.76931305     0.10700
H2008       H  0.01178688  0.27072888  0.78795023     0.10800
H2009       H  0.94529044  0.28683505  0.80164743     0.10500
H2010       H  0.94285837  0.30794886  0.78269989     0.11600
H2011       H  0.98673406  0.24603899  0.80616697     0.11700
H2012       H  0.97191908  0.28739478  0.81932577     0.13600
H2013       H  0.99716791  0.29320717  0.83950013     0.10100
H2014       H  0.00536423  0.26980602  0.85669067     0.12200
H2015       H  0.96985662  0.18852129  0.83761806     0.08800
H2016       H  0.96137628  0.21141867  0.82060527     0.11500
C2017       C  0.04686806  0.24922087  0.86342889    -0.03100
C2018       C  0.04880186  0.26877921  0.87217382    -0.05700
C2019       C  0.07597839  0.28910354  0.87697985    -0.20700
C2020       C  0.10176256  0.29060396  0.87298428     0.25000
C2021       C  0.10008081  0.27324326  0.86333614    -0.18300
C2022       C  0.07280180  0.25249847  0.85869112    -0.08300
C2023       C  0.12858086  0.30551271  0.88040767    -0.18600
C2024       C  0.15590286  0.31683601  0.87625658    -0.23400
C2025       C  0.18124458  0.32521290  0.88418797     0.27000
C2026       C  0.20682019  0.35253812  0.88302394    -0.20100
C2027       C  0.23173825  0.35931309  0.88973850    -0.09800
C2028       C  0.23184512  0.33843674  0.89741570    -0.10300
C2029       C  0.20610382  0.31116187  0.89862759    -0.03200
C2030       C  0.18093297  0.30478010  0.89219963    -0.18300
H2031       H  0.02910536  0.26602876  0.87623717     0.10700
H2032       H  0.07664188  0.30206174  0.88444354     0.10800
H2033       H  0.11944695  0.27342798  0.86017807     0.10500
H2034       H  0.07181149  0.23701784  0.85222739     0.11600
H2035       H  0.12559703  0.30566002  0.88981026     0.11700
H2036       H  0.15975182  0.31912603  0.86688730     0.13600
H2037       H  0.20760905  0.36846966  0.87681134     0.10100
H2038       H  0.25138721  0.38035156  0.88849790     0.12200
H2039       H  0.20561377  0.29457851  0.90439026     0.08800
H2040       H  0.16158202  0.28334391  0.89308589     0.11500
C2041       C  0.25892310  0.44578169  0.77738918    -0.03100
C2042       C  0.24271274  0.45936542  0.78011113    -0.05700
C2043       C  0.21252757  0.44479159  0.77815585    -0.20700
C2044       C  0.19807841  0.41663963  0.77315024     0.25000
C2045       C  0.21395212  0.40202485  0.77141723    -0.18300
C2046       C  0.24420640  0.41658189  0.77351361    -0.08300
C2047       C  0.16745718  0.40490214  0.76893394    -0.18600
C2048       C  0.15507772  0.38513378  0.76019284    -0.23400
C2049       C  0.12698384  0.37850843  0.75451445     0.27000
C2050       C  0.10876173  0.35068350  0.74960251    -0.20100
C2051       C  0.08239198  0.34413607  0.74408049    -0.09800
C2052       C  0.07402431  0.36554151  0.74315188    -0.10300
C2053       C  0.09286328  0.39371316  0.74769303    -0.03200
C2054       C  0.11897416  0.40012116  0.75330623    -0.18300
H2055       H  0.25376914  0.48208119  0.78290278     0.10700
H2056       H  0.20085758  0.45647458  0.77970829     0.10800
H2057       H  0.20347206  0.37995925  0.76795239     0.10500
H2058       H  0.25644732  0.40591212  0.77118790     0.11600
H2059       H  0.15568073  0.41518987  0.77238962     0.11700
H2060       H  0.16609274  0.37413405  0.75671511     0.13600
H2061       H  0.11471249  0.33382357  0.75022238     0.10100
H2062       H  0.06840726  0.32223405  0.74067329     0.12200
H2063       H  0.08720352  0.41078492  0.74710058     0.08800
H2064       H  0.13301980  0.42216559  0.75654694     0.11500
C2065       C  0.31143092  0.45260928  0.79273510    -0.03100
C2066       C  0.29727796  0.45764648  0.80201595    -0.05700
C2067       C  0.29746054  0.44701262  0.81323062    -0.20700
C2068       C  0.31186360  0.43114758  0.81544744     0.25000
C2069       C  0.32518794  0.42522588  0.80601099    -0.18300
C2070       C  0.32500949  0.43595435  0.79478294    -0.08300
C2071       C  0.31185587  0.42092695  0.82765641    -0.18600
C2072       C  0.33033911  0.41218124  0.83174054    -0.23400
C2073       C  0.33039949  0.40293222  0.84412996     0.27000
C2074       C  0.35533432  0.40302612  0.84859767    -0.20100
C2075       C  0.35633539  0.39495068  0.86024660    -0.09800
C2076       C  0.33238226  0.38667645  0.86769110    -0.10300
C2077       C  0.30720905  0.38587831  0.86313650    -0.03200
C2078       C  0.30609756  0.39362716  0.85151625    -0.18300
H2079       H  0.28673118  0.47050607  0.80062961     0.10700
H2080       H  0.28671835  0.45166307  0.82025860     0.10800
H2081       H  0.33556450  0.41218127  0.80718361     0.10500
H2082       H  0.33530675  0.43109594  0.78767548     0.11600
H2083       H  0.29678643  0.42227194  0.83366994     0.11700
H2084       H  0.34709239  0.41312514  0.82602520     0.13600
H2085       H  0.37428373  0.40976977  0.84309851     0.10100
H2086       H  0.37602932  0.39577376  0.86348847     0.12200
H2087       H  0.28816051  0.37912049  0.86857797     0.08800
H2088       H  0.28596847  0.39195166  0.84840048     0.11500
C2089       C  0.59797019  0.59151171  0.71944063    -0.03100
C2090       C  0.59224111  0.59153760  0.70738270    -0.05700
C2091       C  0.57411728  0.56506421  0.70146706    -0.20700
C2092       C  0.56089120  0.53835730  0.70758580     0.25000
C2093       C  0.56741116  0.53834289  0.71951597    -0.18300
C2094       C  0.58577641  0.56450912  0.72534467    -0.08300
C2095       C  0.54070130  0.51028846  0.70160471    -0.18600
C2096       C  0.51612556  0.49000932  0.70695190    -0.23400
C2097       C  0.49775736  0.45896792  0.70316800     0.27000
C2098       C  0.47027485  0.44211949  0.70842599    -0.20100
C2099       C  0.45514451  0.41157104  0.70753498    -0.09800
C2100       C  0.46703650  0.39727361  0.70126423    -0.10300
C2101       C  0.49348738  0.41402434  0.69529891    -0.03200
C2102       C  0.50873349  0.44470497  0.69618427    -0.18300
H2103       H  0.60135252  0.61198241  0.70258647     0.10700
H2104       H  0.56970234  0.56550744  0.69222036     0.10800
H2105       H  0.55821259  0.51797363  0.72437529     0.10500
H2106       H  0.58971848  0.56356986  0.73460767     0.11600
H2107       H  0.54640957  0.50623586  0.69298074     0.11700
H2108       H  0.50996668  0.49606780  0.71509395     0.13600
H2109       H  0.46143164  0.45247029  0.71393246     0.10100
H2110       H  0.43524524  0.39898320  0.71250917     0.12200
H2111       H  0.50341348  0.40327325  0.69072264     0.08800
H2112       H  0.53009144  0.45681881  0.69220187     0.11500
C2113       C  0.36826741  0.49557935  0.77917627    -0.03100
C2114       C  0.38190499  0.47994777  0.77564524    -0.05700
C2115       C  0.41242641  0.49387208  0.77505149    -0.20700
C2116       C  0.42988289  0.52380196  0.77782028     0.25000
C2117       C  0.41617590  0.53884436  0.78218140    -0.18300
C2118       C  0.38563867  0.52482555  0.78280934    -0.08300
C2119       C  0.46107220  0.53941671  0.77407872    -0.18600
C2120       C  0.48121808  0.56683524  0.77741189    -0.23400
C2121       C  0.50964872  0.58395322  0.77125642     0.27000
C2122       C  0.53466650  0.60460250  0.77741062    -0.20100
C2123       C  0.56117753  0.62194898  0.77153974    -0.09800
C2124       C  0.56279263  0.61963827  0.75934322    -0.10300
C2125       C  0.53763861  0.59929433  0.75318748    -0.03200
C2126       C  0.51145763  0.58152561  0.75906923    -0.18300
H2127       H  0.36897238  0.45776589  0.77233809     0.10700
H2128       H  0.42230662  0.48179734  0.77157871     0.10800
H2129       H  0.42860866  0.56201849  0.78418078     0.10500
H2130       H  0.37548867  0.53752598  0.78519292     0.11600
H2131       H  0.46724887  0.52840084  0.76763590     0.11700
H2132       H  0.47670503  0.57743138  0.78457237     0.13600
H2133       H  0.53370605  0.60719063  0.78677308     0.10100
H2134       H  0.58025327  0.63749392  0.77648391     0.12200
H2135       H  0.53828910  0.59689014  0.74379436     0.08800
H2136       H  0.49241105  0.56646096  0.75399769     0.11500
C2137       C  0.81048087  0.79324826  0.86402749    -0.03100
C2138       C  0.79382238  0.76314929  0.86642099    -0.05700
C2139       C  0.80757808  0.74648588  0.86787896    -0.20700
C2140       C  0.83808541  0.75952282  0.86673754     0.25000
C2141       C  0.85429888  0.78915554  0.86336258    -0.18300
C2142       C  0.84061658  0.80585181  0.86211016    -0.08300
C2143       C  0.85275604  0.74332008  0.87093948    -0.18600
C2144       C  0.87998778  0.75000595  0.86781192    -0.23400
C2145       C  0.89640736  0.73789920  0.87404152     0.27000
C2146       C  0.91655072  0.73292619  0.86794954    -0.20100
C2147       C  0.93329504  0.72298599  0.87387389    -0.09800
C2148       C  0.93093710  0.71896553  0.88606075    -0.10300
C2149       C  0.91112882  0.72439912  0.89215837    -0.03200
C2150       C  0.89388871  0.73350871  0.88621891    -0.18300
H2151       H  0.77063500  0.75314149  0.86817035     0.10700
H2152       H  0.79460233  0.72378499  0.87055987     0.10800
H2153       H  0.87785992  0.80021179  0.86263167     0.10500
H2154       H  0.85389583  0.82916104  0.86044625     0.11600
H2155       H  0.84113013  0.72607156  0.87734057     0.11700
H2156       H  0.89087337  0.76514141  0.86065735     0.13600
H2157       H  0.91920101  0.73660286  0.85859441     0.10100
H2158       H  0.94846453  0.71900129  0.86898952     0.12200
H2159       H  0.90874538  0.72128860  0.90155040     0.08800
H2160       H  0.87919020  0.73792000  0.89123105     0.11500
C2161       C  0.75809232  0.79437787  0.85151824    -0.03100
C2162       C  0.72741565  0.77925280  0.85070560    -0.05700
C2163       C  0.71331058  0.76515990  0.84025891    -0.20700
C2164       C  0.72955254  0.76543349  0.83051790     0.25000
C2165       C  0.76022381  0.78058475  0.83134176    -0.18300
C2166       C  0.77426726  0.79493083  0.84169741    -0.08300
C2167       C  0.71429893  0.75133794  0.81937640    -0.18600
C2168       C  0.72448785  0.73885540  0.81188581    -0.23400
C2169       C  0.71093192  0.72680938  0.80027226     0.27000
C2170       C  0.71385773  0.70406448  0.79529463    -0.20100
C2171       C  0.70318621  0.69372440  0.78400377    -0.09800
C2172       C  0.69009034  0.70653493  0.77734768    -0.10300
C2173       C  0.68705948  0.72921563  0.78234689    -0.03200
C2174       C  0.69718930  0.73913768  0.79370483    -0.18300
H2175       H  0.71435552  0.77816078  0.85814236     0.10700
H2176       H  0.68964687  0.75382656  0.83980359     0.10800
H2177       H  0.77344847  0.78211339  0.82388232     0.10500
H2178       H  0.79793307  0.80709998  0.84195313     0.11600
H2179       H  0.69382870  0.75067890  0.81744382     0.11700
H2180       H  0.74331287  0.73694156  0.81441731     0.13600
H2181       H  0.72464940  0.69442770  0.80013127     0.10100
H2182       H  0.70602014  0.67638231  0.78034211     0.12200
H2183       H  0.67707371  0.73952327  0.77741167     0.08800
H2184       H  0.69521299  0.75717519  0.79714083     0.11500
C2185       C  0.38428800  0.97865716  0.75484285    -0.03100
C2186       C  0.39205229  0.96133695  0.74812211    -0.05700
C2187       C  0.41444994  0.95645693  0.75177871    -0.20700
C2188       C  0.42944104  0.96830907  0.76232701     0.25000
C2189       C  0.42060649  0.98413327  0.76948499    -0.18300
C2190       C  0.39821103  0.98931289  0.76574777    -0.08300
C2191       C  0.45579829  0.96594694  0.76476961    -0.18600
C2192       C  0.46752709  0.96740284  0.77542601    -0.23400
C2193       C  0.49339033  0.96349694  0.77659589     0.27000
C2194       C  0.49395853  0.94451071  0.78511156    -0.20100
C2195       C  0.51533449  0.93615840  0.78469566    -0.09800
C2196       C  0.53652404  0.94704382  0.77583265    -0.10300
C2197       C  0.53753526  0.96820732  0.76807197    -0.03200
C2198       C  0.51627754  0.97643815  0.76846497    -0.18300
H2199       H  0.38182160  0.95269100  0.73970315     0.10700
H2200       H  0.42075907  0.94411756  0.74611953     0.10800
H2201       H  0.43193909  0.99383547  0.77761501     0.10500
H2202       H  0.39279442  0.00280381  0.77111916     0.11600
H2203       H  0.46556912  0.96155761  0.75725433     0.11700
H2204       H  0.45674125  0.96875625  0.78326145     0.13600
H2205       H  0.47665032  0.93447491  0.79152103     0.10100
H2206       H  0.51392085  0.91956951  0.79069810     0.12200
H2207       H  0.55381818  0.97708033  0.76122252     0.08800
H2208       H  0.51686149  0.99181027  0.76201271     0.11500
C2209       C  0.59271666  0.89360917  0.77799679    -0.03100
C2210       C  0.62189462  0.90521304  0.77450671    -0.05700
C2211       C  0.63367072  0.88683049  0.77298570    -0.20700
C2212       C  0.61626597  0.85644536  0.77469720     0.25000
C2213       C  0.58804969  0.84536081  0.77937070    -0.18300
C2214       C  0.57634251  0.86377869  0.78091532    -0.08300
C2215       C  0.62703233  0.83678254  0.77048372    -0.18600
C2216       C  0.60878008  0.81028574  0.76569378    -0.23400
C2217       C  0.61774214  0.79063141  0.75990542     0.27000
C2218       C  0.59554521  0.76249994  0.75656133    -0.20100
C2219       C  0.60210695  0.74316126  0.75082120    -0.09800
C2220       C  0.63115902  0.75140150  0.74817141    -0.10300
C2221       C  0.65353069  0.77964046  0.75140963    -0.03200
C2222       C  0.64694117  0.79908960  0.75721208    -0.18300
H2223       H  0.63463473  0.92797337  0.77186135     0.10700
H2224       H  0.65554935  0.89600065  0.76949897     0.10800
H2225       H  0.57435806  0.82219971  0.78119436     0.10500
H2226       H  0.55354406  0.85416030  0.78329268     0.11600
H2227       H  0.65046968  0.84558252  0.77034060     0.11700
H2228       H  0.58551456  0.80270157  0.76558195     0.13600
H2229       H  0.57286356  0.75532338  0.75843133     0.10100
H2230       H  0.58429442  0.72157164  0.74852854     0.12200
H2231       H  0.67616926  0.78660600  0.74957220     0.08800
H2232       H  0.66478385  0.82062911  0.75943893     0.11500
C2233       C  0.71951559  0.80763142  0.60882457    -0.03100
C2234       C  0.68984761  0.79931016  0.60906687    -0.05700
C2235       C  0.68144854  0.82062768  0.60966140    -0.20700
C2236       C  0.70252951  0.85069299  0.60982907     0.25000
C2237       C  0.73232939  0.85879251  0.61030582    -0.18300
C2238       C  0.74065441  0.83745850  0.60964353    -0.08300
C2239       C  0.69249562  0.87259124  0.60870432    -0.18600
C2240       C  0.70977782  0.90031912  0.60485004    -0.23400
C2241       C  0.69900094  0.92058406  0.60133589     0.27000
C2242       C  0.71612549  0.94336093  0.59352778    -0.20100
C2243       C  0.70588207  0.96104247  0.58884029    -0.09800
C2244       C  0.67838678  0.95681722  0.59199144    -0.10300
C2245       C  0.66197822  0.93542515  0.60043072    -0.03200
C2246       C  0.67211562  0.91734690  0.60504300    -0.18300
H2247       H  0.67321762  0.77642615  0.60817709     0.10700
H2248       H  0.65836515  0.81362982  0.60936369     0.10800
H2249       H  0.74940208  0.88150723  0.61085328     0.10500
H2250       H  0.76368953  0.84431741  0.60924821     0.11600
H2251       H  0.66931800  0.86448000  0.60986377     0.11700
H2252       H  0.73247079  0.90771705  0.60287371     0.13600
H2253       H  0.73706047  0.94670766  0.59061295     0.10100
H2254       H  0.71913547  0.97749972  0.58242633     0.12200
H2255       H  0.64069076  0.93168657  0.60301399     0.08800
H2256       H  0.65863024  0.90065836  0.61130990     0.11500
C2257       C  0.73405459  0.76797266  0.62458076    -0.03100
C2258       C  0.74247299  0.79218184  0.63199287    -0.05700
C2259       C  0.73480264  0.78814962  0.64385340    -0.20700
C2260       C  0.71909953  0.75984416  0.64863247     0.25000
C2261       C  0.71150525  0.73559289  0.64130022    -0.18300
C2262       C  0.71890409  0.73964918  0.62940862    -0.08300
C2263       C  0.70971918  0.75618680  0.66110308    -0.18600
C2264       C  0.70753925  0.73424155  0.66788046    -0.23400
C2265       C  0.69882864  0.73055663  0.68040707     0.27000
C2266       C  0.71194379  0.71999606  0.68822075    -0.20100
C2267       C  0.70337374  0.71470469  0.69993787    -0.09800
C2268       C  0.68077090  0.71896483  0.70407039    -0.10300
C2269       C  0.66744177  0.72943878  0.69625373    -0.03200
C2270       C  0.67663726  0.73553639  0.68454382    -0.18300
H2271       H  0.75461542  0.81423888  0.62857641     0.10700
H2272       H  0.74102575  0.80719657  0.64930693     0.10800
H2273       H  0.69883509  0.71343885  0.64462306     0.10500
H2274       H  0.71167115  0.72060632  0.62384766     0.11600
H2275       H  0.70598402  0.77283751  0.66496601     0.11700
H2276       H  0.71418750  0.71937060  0.66435059     0.13600
H2277       H  0.72891819  0.71579449  0.68523454     0.10100
H2278       H  0.71392176  0.70643526  0.70571112     0.12200
H2279       H  0.64995761  0.73288947  0.69919525     0.08800
H2280       H  0.66578263  0.74321248  0.67865598     0.11500
C2281       C  0.93924202  0.39323101  0.71964292    -0.03100
C2282       C  0.91533678  0.39363099  0.72472709    -0.05700
C2283       C  0.90451635  0.41069493  0.71991968    -0.20700
C2284       C  0.91755558  0.42821249  0.71002590     0.25000
C2285       C  0.94082483  0.42705088  0.70462225    -0.18300
C2286       C  0.95147054  0.40958300  0.70937233    -0.08300
C2287       C  0.90631460  0.44758554  0.70594731    -0.18600
C2288       C  0.92202041  0.47266559  0.69984265    -0.23400
C2289       C  0.91172129  0.49414465  0.69832213     0.27000
C2290       C  0.93224382  0.52435749  0.69841385    -0.20100
C2291       C  0.92302308  0.54497638  0.69954882    -0.09800
C2292       C  0.89316253  0.53559496  0.70042822    -0.10300
C2293       C  0.87261199  0.50569029  0.69920995    -0.03200
C2294       C  0.88175112  0.48515450  0.69800746    -0.18300
H2295       H  0.90535329  0.38121813  0.73260540     0.10700
H2296       H  0.88641682  0.41094591  0.72421106     0.10800
H2297       H  0.95096649  0.43969161  0.69682109     0.10500
H2298       H  0.96995815  0.40973834  0.70526216     0.11600
H2299       H  0.88516833  0.44254985  0.70935076     0.11700
H2300       H  0.94430498  0.47947767  0.69734081     0.13600
H2301       H  0.95544666  0.53189910  0.69852634     0.10100
H2302       H  0.93918392  0.56794864  0.70066771     0.12200
H2303       H  0.84946372  0.49806897  0.69996580     0.08800
H2304       H  0.86527926  0.46216561  0.69745360     0.11500
C2305       C  0.85782522  0.60655856  0.70752116    -0.03100
C2306       C  0.83498846  0.59988020  0.69958422    -0.05700
C2307       C  0.81713346  0.61230473  0.70099964    -0.20700
C2308       C  0.82182523  0.63161943  0.71034063     0.25000
C2309       C  0.84641999  0.64020728  0.71761528    -0.18300
C2310       C  0.86415604  0.62780621  0.71618783    -0.08300
C2311       C  0.79861674  0.63892225  0.71311718    -0.18600
C2312       C  0.80126110  0.65857323  0.72130902    -0.23400
C2313       C  0.77620879  0.66156893  0.72543717     0.27000
C2314       C  0.78167752  0.68819424  0.73043151    -0.20100
C2315       C  0.75875842  0.69132021  0.73488870    -0.09800
C2316       C  0.72985181  0.66767778  0.73462135    -0.10300
C2317       C  0.72445408  0.64085803  0.72980459    -0.03200
C2318       C  0.74732381  0.63780879  0.72527898    -0.18300
H2319       H  0.82939446  0.58322933  0.69294192     0.10700
H2320       H  0.79844713  0.60531772  0.69523194     0.10800
H2321       H  0.85104700  0.65476429  0.72496567     0.10500
H2322       H  0.88159238  0.63315041  0.72245866     0.11600
H2323       H  0.77786719  0.62641763  0.70854800     0.11700
H2324       H  0.82237808  0.67310741  0.72525922     0.13600
H2325       H  0.80377022  0.70669613  0.73084031     0.10100
H2326       H  0.76369869  0.71226297  0.73854923     0.12200
H2327       H  0.70247950  0.62215044  0.72950135     0.08800
H2328       H  0.74233634  0.61661037  0.72191585     0.11500
C2329       C  0.74935888  0.08078117  0.88899884    -0.03100
C2330       C  0.76031890  0.11022240  0.88570472    -0.05700
C2331       C  0.78743856  0.12612456  0.88021728    -0.20700
C2332       C  0.80420441  0.11300552  0.87769316     0.25000
C2333       C  0.79298705  0.08329474  0.88071265    -0.18300
C2334       C  0.76586648  0.06739389  0.88631847    -0.08300
C2335       C  0.83424920  0.13176151  0.87295441    -0.18600
C2336       C  0.84905445  0.12118031  0.86709305    -0.23400
C2337       C  0.88068176  0.13899957  0.86402976     0.27000
C2338       C  0.89602444  0.12411797  0.86198208    -0.20100
C2339       C  0.92634870  0.13954450  0.86059519    -0.09800
C2340       C  0.94210459  0.17031798  0.86105716    -0.10300
C2341       C  0.92667262  0.18543145  0.86224338    -0.03200
C2342       C  0.89621678  0.16995241  0.86370632    -0.18300
H2343       H  0.74829625  0.12133682  0.88765687     0.10700
H2344       H  0.79558197  0.14898142  0.87809676     0.10800
H2345       H  0.80552582  0.07253620  0.87922313     0.10500
H2346       H  0.75810700  0.04480994  0.88876441     0.11600
H2347       H  0.84467057  0.15505146  0.87479970     0.11700
H2348       H  0.83821892  0.09787819  0.86517757     0.13600
H2349       H  0.88470209  0.10036131  0.86203165     0.10100
H2350       H  0.93767887  0.12733266  0.85962861     0.12200
H2351       H  0.93828736  0.20915510  0.86272460     0.08800
H2352       H  0.88521504  0.18237829  0.86485457     0.11500
C2353       C  0.71322867  0.11149123  0.92975910    -0.03100
C2354       C  0.73791169  0.11546760  0.93606069    -0.05700
C2355       C  0.75592128  0.14172626  0.94197491    -0.20700
C2356       C  0.74962479  0.16459429  0.94188299     0.25000
C2357       C  0.72420036  0.16023111  0.93602034    -0.18300
C2358       C  0.70617826  0.13391419  0.93003860    -0.08300
C2359       C  0.77194820  0.19365750  0.94665335    -0.18600
C2360       C  0.76601397  0.21453491  0.95014551    -0.23400
C2361       C  0.78894813  0.24572482  0.95232257     0.27000
C2362       C  0.78056115  0.26712574  0.95183392    -0.20100
C2363       C  0.80160944  0.29689551  0.95125203    -0.09800
C2364       C  0.83144840  0.30587145  0.95140298    -0.10300
C2365       C  0.84001932  0.28493433  0.95310740    -0.03200
C2366       C  0.81895956  0.25504898  0.95363250    -0.18300
H2367       H  0.74402055  0.09869093  0.93606300     0.10700
H2368       H  0.77542141  0.14453963  0.94634561     0.10800
H2369       H  0.71898113  0.17758888  0.93546908     0.10500
H2370       H  0.68746229  0.13166223  0.92520933     0.11600
H2371       H  0.79433554  0.19820139  0.94660546     0.11700
H2372       H  0.74337731  0.20935112  0.95032394     0.13600
H2373       H  0.75769480  0.26074336  0.95098471     0.10100
H2374       H  0.79463257  0.31278692  0.94980111     0.12200
H2375       H  0.86300668  0.29150715  0.95312187     0.08800
H2376       H  0.82652382  0.23952987  0.95450509     0.11500
C2377       C  0.66788099  0.95068798  0.89454723    -0.03100
C2378       C  0.66019138  0.94364655  0.88269598    -0.05700
C2379       C  0.66794156  0.92543732  0.87668127    -0.20700
C2380       C  0.68281971  0.91320195  0.88244335     0.25000
C2381       C  0.69011903  0.91985109  0.89435933    -0.18300
C2382       C  0.68290172  0.93855602  0.90031719    -0.08300
C2383       C  0.69244081  0.89545875  0.87565765    -0.18600
C2384       C  0.69453412  0.87320840  0.88047102    -0.23400
C2385       C  0.70808302  0.85761183  0.87466467     0.27000
C2386       C  0.70396932  0.83153201  0.87976059    -0.20100
C2387       C  0.72124642  0.81960268  0.87643916    -0.09800
C2388       C  0.74299442  0.83346644  0.86794140    -0.10300
C2389       C  0.74553246  0.85807983  0.86210573    -0.03200
C2390       C  0.72814495  0.87003836  0.86538934    -0.18300
H2391       H  0.64891621  0.95292891  0.87796725     0.10700
H2392       H  0.66240019  0.92097453  0.86748254     0.10800
H2393       H  0.70230447  0.91144671  0.89899069     0.10500
H2394       H  0.68927850  0.94371612  0.90941610     0.11600
H2395       H  0.69762256  0.90083823  0.86649050     0.11700
H2396       H  0.68669905  0.86655384  0.88934587     0.13600
H2397       H  0.68879085  0.82149640  0.88692288     0.10100
H2398       H  0.71951444  0.80109906  0.88129081     0.12200
H2399       H  0.76280760  0.86963158  0.85579343     0.08800
H2400       H  0.73237603  0.89034572  0.86132590     0.11500
C2401       C  0.57415737  0.93261680  0.79281835    -0.03100
C2402       C  0.56824658  0.91195031  0.80168162    -0.05700
C2403       C  0.57326408  0.92062698  0.81347307    -0.20700
C2404       C  0.58454642  0.95018791  0.81667252     0.25000
C2405       C  0.59046410  0.97084689  0.80771555    -0.18300
C2406       C  0.58542677  0.96212886  0.79596373    -0.08300
C2407       C  0.58893228  0.95827395  0.82939435    -0.18600
C2408       C  0.60566948  0.98598754  0.83343829    -0.23400
C2409       C  0.61085839  0.99433285  0.84610900     0.27000
C2410       C  0.63467117  0.02189137  0.84914967    -0.20100
C2411       C  0.64085541  0.03077073  0.86086715    -0.09800
C2412       C  0.62313045  0.01244463  0.86989854    -0.10300
C2413       C  0.59883736  0.98511864  0.86687707    -0.03200
C2414       C  0.59272279  0.97614550  0.85513728    -0.18300
H2415       H  0.55901496  0.88900124  0.79951631     0.10700
H2416       H  0.56817212  0.90412468  0.82013620     0.10800
H2417       H  0.59836042  0.99367410  0.80966346     0.10500
H2418       H  0.59010023  0.97845645  0.78927053     0.11600
H2419       H  0.57884009  0.94036051  0.83561021     0.11700
H2420       H  0.61754664  0.00359073  0.82723520     0.13600
H2421       H  0.64889364  0.03653311  0.84241876     0.10100
H2422       H  0.65973132  0.05193132  0.86285471     0.12200
H2423       H  0.58472863  0.97040942  0.87361557     0.08800
H2424       H  0.57369282  0.95510609  0.85323118     0.11500
C2425       C  0.41320907  0.16679422  0.94646895    -0.03100
C2426       C  0.43590712  0.19539522  0.94879172    -0.05700
C2427       C  0.43035141  0.21867591  0.94923903    -0.20700
C2428       C  0.40203667  0.21390750  0.94724726     0.25000
C2429       C  0.37897810  0.18489820  0.94556566    -0.18300
C2430       C  0.38460984  0.16160973  0.94512833    -0.08300
C2431       C  0.39843641  0.23983640  0.94509796    -0.18600
C2432       C  0.37253981  0.23902651  0.94513277    -0.23400
C2433       C  0.36862479  0.26308362  0.94024234     0.27000
C2434       C  0.34506034  0.26618926  0.94399128    -0.20100
C2435       C  0.33832428  0.28573274  0.93833850    -0.09800
C2436       C  0.35465773  0.30208179  0.92863210    -0.10300
C2437       C  0.37889868  0.29979022  0.92516995    -0.03200
C2438       C  0.38587513  0.28061761  0.93091451    -0.18300
H2439       H  0.45829212  0.20002300  0.94941688     0.10700
H2440       H  0.44856726  0.24074746  0.95041726     0.10800
H2441       H  0.35699554  0.18026980  0.94367475     0.10500
H2442       H  0.36699825  0.13986286  0.94288712     0.11600
H2443       H  0.41799804  0.26022955  0.94280285     0.11700
H2444       H  0.35324168  0.21976343  0.94844107     0.13600
H2445       H  0.33125461  0.25276007  0.95107054     0.10100
H2446       H  0.31932563  0.28676855  0.94113763     0.12200
H2447       H  0.39180834  0.31196448  0.91768586     0.08800
H2448       H  0.40372385  0.27834825  0.92754715     0.11500
C2449       C  0.44882584  0.09537315  0.94271741    -0.03100
C2450       C  0.43724456  0.06772883  0.93740114    -0.05700
C2451       C  0.45436228  0.05452039  0.93614061    -0.20700
C2452       C  0.48369168  0.06915194  0.93982187     0.25000
C2453       C  0.49467282  0.09593507  0.94588077    -0.18300
C2454       C  0.47727206  0.10885131  0.94737184    -0.08300
C2455       C  0.50268754  0.05698543  0.93644650    -0.18600
C2456       C  0.53051989  0.07439822  0.93293059    -0.23400
C2457       C  0.54879635  0.06334851  0.92755791     0.27000
C2458       C  0.57076184  0.08165001  0.91970174    -0.20100
C2459       C  0.58861439  0.07250252  0.91441216    -0.09800
C2460       C  0.58531263  0.04489306  0.91697235    -0.10300
C2461       C  0.56349422  0.02656756  0.92494492    -0.03200
C2462       C  0.54531709  0.03563503  0.93015290    -0.18300
H2463       H  0.41552438  0.05722141  0.93356377     0.10700
H2464       H  0.44531966  0.03381320  0.93152548     0.10800
H2465       H  0.51702513  0.10743384  0.94905692     0.10500
H2466       H  0.48680838  0.13043236  0.95129960     0.11600
H2467       H  0.49245439  0.03339664  0.93536827     0.11700
H2468       H  0.53945562  0.09799809  0.93292662     0.13600
H2469       H  0.57402785  0.10313323  0.91757661     0.10100
H2470       H  0.60533637  0.08733045  0.90841530     0.12200
H2471       H  0.56058302  0.00530341  0.92721167     0.08800
H2472       H  0.52903037  0.02119568  0.93636276     0.11500
C2473       C  0.61904273  0.73926279  0.05417901    -0.03100
C2474       C  0.59294827  0.73616286  0.05864219    -0.05700
C2475       C  0.57954841  0.75028879  0.05331880    -0.20700
C2476       C  0.59213289  0.76844354  0.04354619     0.25000
C2477       C  0.61792996  0.77109929  0.03884222    -0.18300
C2478       C  0.63114574  0.75643168  0.04408015    -0.08300
C2479       C  0.57750909  0.78419306  0.03878415    -0.18600
C2480       C  0.59135284  0.81018145  0.03312844    -0.23400
C2481       C  0.57691955  0.82791334  0.03088145     0.27000
C2482       C  0.59383252  0.85873807  0.03101177    -0.20100
C2483       C  0.58034745  0.87589482  0.03108759    -0.09800
C2484       C  0.54974602  0.86241151  0.03098258    -0.10300
C2485       C  0.53297067  0.83181949  0.02984205    -0.03200
C2486       C  0.54637278  0.81474514  0.02962471    -0.18300
H2487       H  0.58291010  0.72287905  0.06633102     0.10700
H2488       H  0.55957178  0.74761388  0.05707216     0.10800
H2489       H  0.62787584  0.78437919  0.03115823     0.10500
H2490       H  0.65121526  0.75914075  0.04042631     0.11600
H2491       H  0.55489816  0.77551969  0.04134349     0.11700
H2492       H  0.61466431  0.82042050  0.03150801     0.13600
H2493       H  0.61741253  0.86949715  0.03184224     0.10100
H2494       H  0.59367594  0.89944856  0.03211134     0.12200
H2495       H  0.50930690  0.82100792  0.02972394     0.08800
H2496       H  0.53261978  0.79118311  0.02896665     0.11500
C2497       C  0.55114007  0.91633001  0.01846880    -0.03100
C2498       C  0.56772514  0.94688901  0.01703533    -0.05700
C2499       C  0.58089433  0.95906403  0.00626473    -0.20700
C2500       C  0.57785980  0.94104747  0.99665965     0.25000
C2501       C  0.56129872  0.91038292  0.99816387    -0.18300
C2502       C  0.54797301  0.89829292  0.00888354    -0.08300
C2503       C  0.59302672  0.95508709  0.98543509    -0.18600
C2504       C  0.58730309  0.94078676  0.97508677    -0.23400
C2505       C  0.60221688  0.95444277  0.96381991     0.27000
C2506       C  0.58859079  0.94015728  0.95332824    -0.20100
C2507       C  0.60152886  0.95164970  0.94250504    -0.09800
C2508       C  0.62869204  0.97773760  0.94182997    -0.10300
C2509       C  0.64270945  0.99189639  0.95232840    -0.03200
C2510       C  0.62966783  0.98037170  0.96321149    -0.18300
H2511       H  0.57094473  0.96136156  0.02429749     0.10700
H2512       H  0.59366097  0.98271478  0.00545547     0.10800
H2513       H  0.55876719  0.89541393  0.99121831     0.10500
H2514       H  0.53497974  0.87467590  0.00965895     0.11600
H2515       H  0.60889002  0.97836303  0.98571705     0.11700
H2516       H  0.56990142  0.91812448  0.97457453     0.13600
H2517       H  0.56760574  0.92006021  0.95348683     0.10100
H2518       H  0.59002311  0.94011764  0.93463020     0.12200
H2519       H  0.66367723  0.01198068  0.95213468     0.08800
H2520       H  0.64135187  0.99166646  0.97107383     0.11500
C2521       C  0.79867083  0.06789772  0.36729971    -0.03100
C2522       C  0.78925197  0.08777832  0.36459444    -0.05700
C2523       C  0.80960135  0.11783805  0.36380010    -0.20700
C2524       C  0.83958182  0.12839658  0.36573988     0.25000
C2525       C  0.84906316  0.10792577  0.36720577    -0.18300
C2526       C  0.82872616  0.07802521  0.36813771    -0.08300
C2527       C  0.85961958  0.16060808  0.36725545    -0.18600
C2528       C  0.88454256  0.17194346  0.37366431    -0.23400
C2529       C  0.90200095  0.20304111  0.37769944     0.27000
C2530       C  0.92760172  0.21127633  0.38424035    -0.20100
C2531       C  0.94278148  0.23875842  0.38964606    -0.09800
C2532       C  0.93263379  0.25872334  0.38869847    -0.10300
C2533       C  0.90788606  0.25117493  0.38168917    -0.03200
C2534       C  0.89273852  0.22370233  0.37623003    -0.18300
H2535       H  0.76610551  0.08038228  0.36406381     0.10700
H2536       H  0.80168170  0.13302637  0.36248989     0.10800
H2537       H  0.87198608  0.11483841  0.36815243     0.10500
H2538       H  0.83635844  0.06291641  0.37022844     0.11600
H2539       H  0.85183161  0.17480792  0.36402009     0.11700
H2540       H  0.89160241  0.15726956  0.37706512     0.13600
H2541       H  0.93538703  0.19596578  0.38552714     0.10100
H2542       H  0.96183216  0.24389008  0.39494072     0.12200
H2543       H  0.89966864  0.26620356  0.38069225     0.08800
H2544       H  0.87328277  0.21864712  0.37129867     0.11500
C2545       C  0.89595168  0.29296464  0.42855612    -0.03100
C2546       C  0.89310405  0.27004262  0.43577688    -0.05700
C2547       C  0.86621945  0.25030588  0.44077857    -0.20700
C2548       C  0.84135597  0.25282259  0.43873475     0.25000
C2549       C  0.84457310  0.27692243  0.43212361    -0.18300
C2550       C  0.87165244  0.29683886  0.42713456    -0.08300
C2551       C  0.81237978  0.22796399  0.44246593    -0.18600
C2552       C  0.78684708  0.22792712  0.44200512    -0.23400
C2553       C  0.75770937  0.20079992  0.44343350     0.27000
C2554       C  0.73313739  0.20346635  0.44594976    -0.20100
C2555       C  0.70484809  0.17899954  0.44537865    -0.09800
C2556       C  0.70057949  0.15140079  0.44222927    -0.10300
C2557       C  0.72506964  0.14837104  0.44022223    -0.03200
C2558       C  0.75333569  0.17270900  0.44086612    -0.18300
H2559       H  0.91139238  0.26650413  0.43715488     0.10700
H2560       H  0.86457080  0.23213590  0.44584793     0.10800
H2561       H  0.82608710  0.27972959  0.43021324     0.10500
H2562       H  0.87309980  0.31425470  0.42161644     0.11600
H2563       H  0.81207432  0.20815112  0.44531225     0.11700
H2564       H  0.78689759  0.24812679  0.44012689     0.13600
H2565       H  0.73573595  0.22480861  0.44778016     0.10100
H2566       H  0.68624612  0.18211010  0.44647386     0.12200
H2567       H  0.72220163  0.12748616  0.43737641     0.08800
H2568       H  0.77139139  0.16964286  0.43849346     0.11500
C2569       C  0.02226225  0.62575944  0.26082146    -0.03100
C2570       C  0.04741352  0.62671313  0.25632562    -0.05700
C2571       C  0.05903046  0.61087653  0.26162353    -0.20700
C2572       C  0.04560362  0.59322712  0.27143602     0.25000
C2573       C  0.02107816  0.59307689  0.27627705    -0.18300
C2574       C  0.00961133  0.60935368  0.27103699    -0.08300
C2575       C  0.05758639  0.57483846  0.27596598    -0.18600
C2576       C  0.04142062  0.54873437  0.28133481    -0.23400
C2577       C  0.05225222  0.52767713  0.28288850     0.27000
C2578       C  0.03231394  0.49744849  0.28190083    -0.20100
C2579       C  0.04230773  0.47744600  0.28086796    -0.09800
C2580       C  0.07236751  0.48733487  0.28103519    -0.10300
C2581       C  0.09217345  0.51713225  0.28306954    -0.03200
C2582       C  0.08223470  0.53713312  0.28411657    -0.18300
H2583       H  0.05784983  0.63928478  0.24852917     0.10700
H2584       H  0.07806039  0.61160963  0.25775812     0.10800
H2585       H  0.01060642  0.58028284  0.28401133     0.10500
H2586       H  0.99027051  0.60826875  0.27473040     0.11600
H2587       H  0.07970886  0.58130179  0.27331698     0.11700
H2588       H  0.01844113  0.54078325  0.28300484     0.13600
H2589       H  0.00910452  0.48952406  0.28102472     0.10100
H2590       H  0.02674646  0.45461483  0.27905948     0.12200
H2591       H  0.11549250  0.52521048  0.28305242     0.08800
H2592       H  0.09818085  0.56011082  0.28530005     0.11500
C2593       C  0.08337885  0.44212371  0.29391919    -0.03100
C2594       C  0.09470067  0.46405276  0.30253016    -0.05700
C2595       C  0.08542094  0.45752090  0.31415524    -0.20700
C2596       C  0.06426055  0.42891174  0.31748137     0.25000
C2597       C  0.05353823  0.40666163  0.30888197    -0.18300
C2598       C  0.06306776  0.41325278  0.29722183    -0.08300
C2599       C  0.05466266  0.42364464  0.33001021    -0.18600
C2600       C  0.03007612  0.39988495  0.33397705    -0.23400
C2601       C  0.02043972  0.39526286  0.34653239     0.27000
C2602       C  0.99183174  0.37297988  0.34921987    -0.20100
C2603       C  0.98202190  0.36726653  0.36084149    -0.09800
C2604       C  0.00053968  0.38380115  0.37012772    -0.10300
C2605       C  0.02910643  0.40615143  0.36746745    -0.03200
C2606       C  0.03901015  0.41170908  0.35587058    -0.18300
H2607       H  0.11034779  0.48647277  0.30017267     0.10700
H2608       H  0.09435850  0.47509187  0.32053262     0.10800
H2609       H  0.03777596  0.38418098  0.31105463     0.10500
H2610       H  0.05379910  0.39608775  0.29068131     0.11600
H2611       H  0.06804408  0.44110054  0.33607480     0.11700
H2612       H  0.01564369  0.38338337  0.32775526     0.13600
H2613       H  0.97700815  0.35975860  0.34229400     0.10100
H2614       H  0.95997243  0.34969022  0.36255879     0.12200
H2615       H  0.04418096  0.41893098  0.37440551     0.08800
H2616       H  0.06144688  0.42848190  0.35440438     0.11500
C2617       C  0.23973397  0.21931343  0.36704600    -0.03100
C2618       C  0.21729143  0.19191196  0.36317873    -0.05700
C2619       C  0.22180621  0.16795110  0.36265869    -0.20700
C2620       C  0.24881627  0.17098338  0.36598781     0.25000
C2621       C  0.27199119  0.19907960  0.36894687    -0.18300
C2622       C  0.26738204  0.22295371  0.36951887    -0.08300
C2623       C  0.25048377  0.14403780  0.36824448    -0.18600
C2624       C  0.27574983  0.14376495  0.36908078    -0.23400
C2625       C  0.27740188  0.11843096  0.37389778     0.27000
C2626       C  0.29963670  0.11336055  0.37008628    -0.20100
C2627       C  0.30403337  0.09202184  0.37548324    -0.09800
C2628       C  0.28678046  0.07583569  0.38504378    -0.10300
C2629       C  0.26401872  0.08040217  0.38868729    -0.03200
C2630       C  0.25925622  0.10136801  0.38312758    -0.18300
H2631       H  0.19546564  0.18826596  0.36169964     0.10700
H2632       H  0.20353781  0.14655300  0.36045417     0.10800
H2633       H  0.29294836  0.20232838  0.37182134     0.10500
H2634       H  0.28474754  0.24375889  0.37280747     0.11600
H2635       H  0.23006576  0.12388325  0.36990325     0.11700
H2636       H  0.29607777  0.16285239  0.36640712     0.13600
H2637       H  0.31408004  0.12643075  0.36309153     0.10100
H2638       H  0.32194276  0.08925655  0.37253440     0.12200
H2639       H  0.25050260  0.06844139  0.39607223     0.08800
H2640       H  0.24237679  0.10525434  0.38647940     0.11500
C2641       C  0.06056607  0.33893939  0.39727050    -0.03100
C2642       C  0.08201554  0.35940019  0.38970529    -0.05700
C2643       C  0.10314079  0.35402899  0.38490745    -0.20700
C2644       C  0.10290698  0.32781071  0.38730404     0.25000
C2645       C  0.08127052  0.30709355  0.39476763    -0.18300
C2646       C  0.06039304  0.31270027  0.39975076    -0.08300
C2647       C  0.12681302  0.32382474  0.38259846    -0.18600
C2648       C  0.12351775  0.29748188  0.37987505    -0.23400
C2649       C  0.14834246  0.29356901  0.37623753     0.27000
C2650       C  0.14279005  0.26891124  0.36955828    -0.20100
C2651       C  0.16500163  0.26231371  0.36754169    -0.09800
C2652       C  0.19293313  0.27994184  0.37241323    -0.10300
C2653       C  0.19895355  0.30548998  0.37849575    -0.03200
C2654       C  0.17696025  0.31232802  0.38036598    -0.18300
H2655       H  0.08274792  0.37981387  0.38761730     0.10700
H2656       H  0.11974824  0.37042780  0.37927959     0.10800
H2657       H  0.08093085  0.28696251  0.39701678     0.10500
H2658       H  0.04406589  0.29647236  0.40551418     0.11600
H2659       H  0.14769601  0.34351657  0.38104551     0.11700
H2660       H  0.10193152  0.27806645  0.38033100     0.13600
H2661       H  0.12091116  0.25402504  0.36634127     0.10100
H2662       H  0.15968349  0.24211944  0.36306419     0.12200
H2663       H  0.22020606  0.31907016  0.38251734     0.08800
H2664       H  0.18201030  0.33113472  0.38577156     0.11500
C2665       C  0.37944934  0.43859806  0.25633152    -0.03100
C2666       C  0.38273430  0.46404255  0.25092603    -0.05700
C2667       C  0.40428075  0.49171388  0.25468503    -0.20700
C2668       C  0.42290328  0.49480113  0.26403089     0.25000
C2669       C  0.41848186  0.46956124  0.27003765    -0.18300
C2670       C  0.39685819  0.44159771  0.26619709    -0.08300
C2671       C  0.44869289  0.52425827  0.26606090    -0.18600
C2672       C  0.46320095  0.53422600  0.27626978    -0.23400
C2673       C  0.48884212  0.56434901  0.27675114     0.27000
C2674       C  0.48986205  0.58498785  0.28477867    -0.20100
C2675       C  0.51043640  0.61489971  0.28339765    -0.09800
C2676       C  0.53024016  0.62428003  0.27403185    -0.10300
C2677       C  0.53093325  0.60322764  0.26676111    -0.03200
C2678       C  0.51049888  0.57355351  0.26812381    -0.18300
H2679       H  0.36959890  0.46258648  0.24336581     0.10700
H2680       H  0.40720766  0.51082271  0.24993453     0.10800
H2681       H  0.43279807  0.47126618  0.27718202     0.10500
H2682       H  0.39497915  0.42238735  0.27049037     0.11600
H2683       H  0.45591561  0.53911326  0.25860553     0.11700
H2684       H  0.45517467  0.52140911  0.28423627     0.13600
H2685       H  0.47336811  0.57829984  0.29150170     0.10100
H2686       H  0.50929097  0.63079295  0.28903099     0.12200
H2687       H  0.54612230  0.60994456  0.25953419     0.08800
H2688       H  0.51043416  0.55791447  0.26196395     0.11500
C2689       C  0.40709744  0.39746928  0.21779162    -0.03100
C2690       C  0.42994906  0.39293784  0.22141610    -0.05700
C2691       C  0.45835610  0.41100355  0.21738365    -0.20700
C2692       C  0.46474422  0.43409583  0.20962086     0.25000
C2693       C  0.44153916  0.43730953  0.20522713    -0.18300
C2694       C  0.41285010  0.41900467  0.20926773    -0.08300
C2695       C  0.49604701  0.45665018  0.20800691    -0.18600
C2696       C  0.50712418  0.47633749  0.19923326    -0.23400
C2697       C  0.53812164  0.50036126  0.19987879     0.27000
C2698       C  0.55786100  0.50544719  0.19075945    -0.20100
C2699       C  0.58791905  0.52547476  0.19229418    -0.09800
C2700       C  0.59837209  0.54104694  0.20287608    -0.10300
C2701       C  0.57810175  0.53738633  0.21156575    -0.03200
C2702       C  0.54843965  0.51723254  0.21011705    -0.18300
H2703       H  0.42615410  0.37640270  0.22791618     0.10700
H2704       H  0.47574534  0.40795810  0.22088215     0.10800
H2705       H  0.44574580  0.45513958  0.19935923     0.10500
H2706       H  0.39568742  0.42315890  0.20641494     0.11600
H2707       H  0.51106395  0.45773164  0.21480933     0.11700
H2708       H  0.49380865  0.47487750  0.19171433     0.13600
H2709       H  0.55030106  0.49273286  0.18276508     0.10100
H2710       H  0.60304691  0.52751186  0.18551147     0.12200
H2711       H  0.58540824  0.54928306  0.21975629     0.08800
H2712       H  0.53356224  0.51412488  0.21718289     0.11500
C2713       C  0.24614017  0.36929595  0.24451599    -0.03100
C2714       C  0.24760980  0.39577164  0.24133396    -0.05700
C2715       C  0.22720116  0.40295079  0.24564219    -0.20700
C2716       C  0.20557331  0.38446472  0.25360281     0.25000
C2717       C  0.20438898  0.35822906  0.25700588    -0.18300
C2718       C  0.22424506  0.35054135  0.25238006    -0.08300
C2719       C  0.18300475  0.39181347  0.25730266    -0.18600
C2720       C  0.17287220  0.38899741  0.26834409    -0.23400
C2721       C  0.15039883  0.39716215  0.27130866     0.27000
C2722       C  0.15441391  0.41581539  0.28081867    -0.20100
C2723       C  0.13537925  0.42697000  0.28245804    -0.09800
C2724       C  0.11175596  0.41908470  0.27473608    -0.10300
C2725       C  0.10622576  0.39805696  0.26601973    -0.03200
C2726       C  0.12540952  0.38745661  0.26425385    -0.18300
H2727       H  0.26424532  0.41068569  0.23532801     0.10700
H2728       H  0.22837456  0.42313043  0.24278280     0.10800
H2729       H  0.18761475  0.34331017  0.26295982     0.10500
H2730       H  0.22277030  0.33012432  0.25508091     0.11600
H2731       H  0.17543509  0.40142613  0.25070696     0.11700
H2732       H  0.18239402  0.38241203  0.27533078     0.13600
H2733       H  0.17339320  0.42336594  0.28646109     0.10100
H2734       H  0.14051863  0.44349747  0.28911104     0.12200
H2735       H  0.08818894  0.39153491  0.25994063     0.17800
H2736       H  0.12134931  0.37252565  0.25705161     0.11500
C2737       C  0.29276203  0.31314290  0.27604693    -0.03100
C2738       C  0.31324134  0.31555447  0.28452463    -0.05700
C2739       C  0.30532755  0.30972516  0.29633162    -0.20700
C2740       C  0.27671246  0.30095606  0.29992621     0.25000
C2741       C  0.25619587  0.29851301  0.29144665    -0.18300
C2742       C  0.26414916  0.30454576  0.27966559    -0.08300
C2743       C  0.26942391  0.29579834  0.31261227    -0.18600
C2744       C  0.24218726  0.27788948  0.31668793    -0.23400
C2745       C  0.23547798  0.27243987  0.32940092     0.27000
C2746       C  0.21249357  0.24507003  0.33307893    -0.20100
C2747       C  0.20639094  0.23893179  0.34501793    -0.09800
C2748       C  0.22287298  0.26026018  0.35345589    -0.10300
C2749       C  0.24497654  0.28802807  0.34978890    -0.03200
C2750       C  0.25128458  0.29410769  0.33788946    -0.18300
H2751       H  0.33548168  0.32227581  0.28206152     0.10700
H2752       H  0.32163887  0.31202072  0.30269301     0.10800
H2753       H  0.23419163  0.29265309  0.29389645     0.10500
H2754       H  0.24785675  0.30270514  0.27339027     0.11600
H2755       H  0.28750865  0.30603658  0.31879943     0.11700
H2756       H  0.22449207  0.26528013  0.31054739     0.13600
H2757       H  0.19970174  0.22815583  0.32670758     0.10100
H2758       H  0.18900739  0.21754526  0.34766548     0.12200
H2759       H  0.25784942  0.30474278  0.35621378     0.08800
H2760       H  0.26849346  0.31574106  0.33536748     0.11500
C2761       C  0.12344408  0.73507084  0.03572383    -0.03100
C2762       C  0.14998182  0.74169716  0.03048532    -0.05700
C2763       C  0.17325564  0.77068098  0.03027028    -0.20700
C2764       C  0.17006920  0.79347124  0.03502608     0.25000
C2765       C  0.14260673  0.78696541  0.03938639    -0.18300
C2766       C  0.11962207  0.75795443  0.03983800    -0.08300
C2767       C  0.19648867  0.82255843  0.03710855    -0.18600
C2768       C  0.19561223  0.84755248  0.03793734    -0.23400
C2769       C  0.22038792  0.87516770  0.04260550     0.27000
C2770       C  0.22473318  0.90213502  0.03848869    -0.20100
C2771       C  0.24532646  0.92838324  0.04383981    -0.09800
C2772       C  0.26138186  0.92809227  0.05365451    -0.10300
C2773       C  0.25761404  0.90111618  0.05757353    -0.03200
C2774       C  0.23745883  0.87491372  0.05205549    -0.18300
H2775       H  0.15350143  0.72422693  0.02749141     0.10700
H2776       H  0.19425097  0.77510802  0.02695953     0.10800
H2777       H  0.13949892  0.80381937  0.04335474     0.10500
H2778       H  0.09943830  0.75313237  0.04410307     0.11600
H2779       H  0.21711679  0.82315614  0.03857639     0.11700
H2780       H  0.17583063  0.84770759  0.03543228     0.13600
H2781       H  0.21162232  0.90282315  0.03130229     0.10100
H2782       H  0.24753943  0.94878049  0.04067063     0.12200
H2783       H  0.26954152  0.90017923  0.06514922     0.08800
H2784       H  0.23410320  0.85438972  0.05560587     0.11500
C2785       C  0.23193139  0.95960866  0.09408466    -0.03100
C2786       C  0.23200292  0.94470865  0.10431279    -0.05700
C2787       C  0.20568540  0.92395354  0.10948997    -0.20700
C2788       C  0.17872196  0.91806559  0.10474024     0.25000
C2789       C  0.17866152  0.93410175  0.09486865    -0.18300
C2790       C  0.20497151  0.95456877  0.08959128    -0.08300
C2791       C  0.15124175  0.89297320  0.10940784    -0.18600
C2792       C  0.12502994  0.89136354  0.10860564    -0.23400
C2793       C  0.09663572  0.86454398  0.11136725     0.27000
C2794       C  0.07193765  0.86741073  0.11320576    -0.20100
C2795       C  0.04391802  0.84265945  0.11358354    -0.09800
C2796       C  0.03997180  0.81443631  0.11224191    -0.10300
C2797       C  0.06471159  0.81137389  0.11098443    -0.03200
C2798       C  0.09280369  0.83613186  0.11061115    -0.18300
H2799       H  0.25235355  0.94791651  0.10797405     0.10700
H2800       H  0.20636882  0.91181902  0.11703723     0.10800
H2801       H  0.15833602  0.92973285  0.09078963     0.10500
H2802       H  0.20413744  0.96556941  0.08170245     0.11600
H2803       H  0.15277295  0.87517741  0.11350122     0.11700
H2804       H  0.12411435  0.91038422  0.10550190     0.13600
H2805       H  0.07415640  0.88896437  0.11367059     0.10100
H2806       H  0.02511181  0.84565527  0.11403982     0.12200
H2807       H  0.06209450  0.78992408  0.10939792     0.08800
H2808       H  0.11107861  0.83291419  0.10883693     0.11500
C2809       C  0.39154640  0.99428431  0.06598285    -0.03100
C2810       C  0.38368042  0.96469573  0.06464913    -0.05700
C2811       C  0.40154449  0.95691469  0.05852004    -0.20700
C2812       C  0.42792643  0.97837662  0.05356585     0.25000
C2813       C  0.43619643  0.00812531  0.05497970    -0.18300
C2814       C  0.41814464  0.01597868  0.06113817    -0.08300
C2815       C  0.44534987  0.96824313  0.04684175    -0.18600
C2816       C  0.47431692  0.98439996  0.04478125    -0.23400
C2817       C  0.49079748  0.97063132  0.04001804     0.27000
C2818       C  0.51775848  0.97762956  0.04510890    -0.20100
C2819       C  0.53043454  0.96035429  0.04282516    -0.09800
C2820       C  0.51679134  0.93631871  0.03516288    -0.10300
C2821       C  0.49155625  0.93129650  0.02908263    -0.03200
C2822       C  0.47863443  0.94833658  0.03147515    -0.18300
H2823       H  0.36334349  0.94734712  0.06819792     0.10700
H2824       H  0.39457281  0.93385739  0.05760005     0.10800
H2825       H  0.45609392  0.02529316  0.05110093     0.10500
H2826       H  0.42457830  0.03893353  0.06181660     0.11600
H2827       H  0.43408407  0.94521324  0.04436984     0.11700
H2828       H  0.48671426  0.00661594  0.04815596     0.13600
H2829       H  0.52766946  0.99477937  0.05165602     0.10100
H2830       H  0.54951708  0.96415582  0.04781776     0.12200
H2831       H  0.48036305  0.91251597  0.02332013     0.08800
H2832       H  0.45821025  0.94291062  0.02718188     0.11500
C2833       C  0.42148225  0.12029341  0.96077522    -0.03100
C2834       C  0.42840998  0.14218209  0.96922953    -0.05700
C2835       C  0.41822374  0.13472208  0.98073293    -0.20700
C2836       C  0.40136704  0.10521688  0.98413263     0.25000
C2837       C  0.39556831  0.08327244  0.97579911    -0.18300
C2838       C  0.40551374  0.09076720  0.96427604    -0.08300
C2839       C  0.38876446  0.09814896  0.99616433    -0.18600
C2840       C  0.38151062  0.07282336  0.00171497    -0.23400
C2841       C  0.36967541  0.06610345  0.01382436     0.27000
C2842       C  0.37786607  0.05004929  0.02114037    -0.20100
C2843       C  0.36750300  0.04331294  0.03259197    -0.09800
C2844       C  0.34793936  0.05170027  0.03694803    -0.10300
C2845       C  0.33878620  0.06689717  0.02952368    -0.03200
C2846       C  0.34984273  0.07435883  0.01807646    -0.18300
H2847       H  0.44130903  0.16507748  0.96692579     0.10700
H2848       H  0.42322908  0.15209346  0.98697172     0.10800
H2849       H  0.38218280  0.06028685  0.97796274     0.10500
H2850       H  0.39942809  0.07339896  0.95792885     0.11600
H2851       H  0.38647992  0.11488412  0.00078548     0.11700
H2852       H  0.38644906  0.05723515  0.99763431     0.13600
H2853       H  0.39282064  0.04314817  0.01804908     0.10100
H2854       H  0.37476444  0.03135620  0.03807224     0.12200
H2855       H  0.32371249  0.07358354  0.03265532     0.08800
H2856       H  0.34262601  0.08620485  0.01252468     0.11500
C2857       C  0.59671260  0.05026350  0.21841046    -0.03100
C2858       C  0.59965936  0.07739260  0.22150065    -0.05700
C2859       C  0.58214375  0.08706905  0.21620928    -0.20700
C2860       C  0.56079618  0.06957986  0.20791101     0.25000
C2861       C  0.55886648  0.04311841  0.20431817    -0.18300
C2862       C  0.57682561  0.03363220  0.20949256    -0.08300
C2863       C  0.54007128  0.07909729  0.20385275    -0.18600
C2864       C  0.51193908  0.06017866  0.20098372    -0.23400
C2865       C  0.48941681  0.06923944  0.20027766     0.27000
C2866       C  0.46047255  0.04880721  0.20334952    -0.20100
C2867       C  0.43984693  0.05772917  0.20491865    -0.09800
C2868       C  0.44767391  0.08711668  0.20321625    -0.10300
C2869       C  0.47596365  0.10715809  0.19937656    -0.03200
C2870       C  0.49656720  0.09825676  0.19774185    -0.18300
H2871       H  0.61491307  0.09074474  0.22829792     0.10700
H2872       H  0.58428590  0.10766022  0.21905692     0.10800
H2873       H  0.54316874  0.02947106  0.19771422     0.10500
H2874       H  0.57409384  0.01261060  0.20695153     0.11600
H2875       H  0.54709900  0.10213659  0.20500988     0.11700
H2876       H  0.50424363  0.03681662  0.20090594     0.13600
H2877       H  0.45431641  0.02631746  0.20532157     0.10100
H2878       H  0.41834519  0.04213154  0.20818849     0.12200
H2879       H  0.48266887  0.13012529  0.19834963     0.08800
H2880       H  0.51835011  0.11445856  0.19500072     0.11500
C2881       C  0.40274933  0.09965002  0.19042981    -0.03100
C2882       C  0.37285162  0.08264150  0.18769996    -0.05700
C2883       C  0.36364270  0.07267815  0.17624062    -0.20700
C2884       C  0.38408453  0.07974922  0.16721952     0.25000
C2885       C  0.41403630  0.09756811  0.16992435    -0.18300
C2886       C  0.42317586  0.10748940  0.18138260    -0.08300
C2887       C  0.37352517  0.06692024  0.15531120    -0.18600
C2888       C  0.38898993  0.07865844  0.14545284    -0.23400
C2889       C  0.37882595  0.06615175  0.13350964     0.27000
C2890       C  0.38955925  0.08518488  0.12389333    -0.20100
C2891       C  0.38114708  0.07465412  0.11249031    -0.09800
C2892       C  0.36220070  0.04460883  0.11034033    -0.10300
C2893       C  0.35186213  0.02528998  0.11992850    -0.03200
C2894       C  0.35995467  0.03596632  0.13142344    -0.18300
H2895       H  0.35668974  0.07609536  0.19455052     0.10700
H2896       H  0.34047196  0.05896838  0.17445523     0.10800
H2897       H  0.43062236  0.10312435  0.16334386     0.10500
H2898       H  0.44628019  0.12095681  0.18320154     0.11600
H2899       H  0.35182637  0.04773179  0.15463838     0.11700
H2900       H  0.40943228  0.09935205  0.14598226     0.13600
H2901       H  0.40431629  0.10844709  0.12521489     0.10100
H2902       H  0.38960283  0.09014589  0.10531372     0.12200
H2903       H  0.33715915  0.00205252  0.11855211     0.08800
H2904       H  0.35180157  0.02053272  0.13861026     0.11500
C2905       C  0.38437459  0.13164329  0.20913456    -0.03100
C2906       C  0.39444318  0.15523421  0.20129481    -0.05700
C2907       C  0.38477926  0.17557479  0.20223973    -0.20700
C2908       C  0.36474808  0.17261032  0.21096863     0.25000
C2909       C  0.35311803  0.14761468  0.21820860    -0.18300
C2910       C  0.36280816  0.12744840  0.21726505    -0.08300
C2911       C  0.35930903  0.19748211  0.21314646    -0.18600
C2912       C  0.33825167  0.19583963  0.22031212    -0.23400
C2913       C  0.33552352  0.22148817  0.22410801     0.27000
C2914       C  0.30957765  0.21616753  0.22961019    -0.20100
C2915       C  0.30654841  0.23929802  0.23400361    -0.09800
C2916       C  0.32957358  0.26842055  0.23312417    -0.10300
C2917       C  0.35560408  0.27381685  0.22764798    -0.03200
C2918       C  0.35859239  0.25069781  0.22320474    -0.18300
H2919       H  0.41148932  0.15929200  0.19509423     0.10700
H2920       H  0.39420564  0.19456140  0.19654254     0.10800
H2921       H  0.33805216  0.14430131  0.22517211     0.10500
H2922       H  0.35488324  0.10953146  0.22347746     0.11600
H2923       H  0.37402343  0.21817004  0.20893649     0.11700
H2924       H  0.32205846  0.17470565  0.22375565     0.13600
H2925       H  0.29154660  0.19393170  0.23057178     0.10100
H2926       H  0.28620373  0.23433386  0.23815200     0.12200
H2927       H  0.37376924  0.29600534  0.22677956     0.08800
H2928       H  0.37926718  0.25591571  0.21934714     0.11500
C2929       C  0.17801719  0.25260392  0.11012193    -0.03100
C2930       C  0.18705710  0.28154618  0.11340247    -0.05700
C2931       C  0.16634711  0.29049171  0.11485023    -0.20700
C2932       C  0.13635330  0.27068341  0.11300742     0.25000
C2933       C  0.12735869  0.24103946  0.11081538    -0.18300
C2934       C  0.14803133  0.23226643  0.10922558    -0.08300
C2935       C  0.11565867  0.28220899  0.11248765    -0.18600
C2936       C  0.08996032  0.26855044  0.10656033    -0.23400
C2937       C  0.07140264  0.28170892  0.10359784     0.27000
C2938       C  0.04478641  0.26409706  0.09767662    -0.20100
C2939       C  0.02849568  0.27613861  0.09309920    -0.09800
C2940       C  0.03846015  0.30623278  0.09429654    -0.10300
C2941       C  0.06420737  0.32358424  0.10079152    -0.03200
C2942       C  0.08050972  0.31153626  0.10539092    -0.18300
H2943       H  0.21013214  0.29763765  0.11403206     0.10700
H2944       H  0.17393620  0.31336222  0.11670747     0.10800
H2945       H  0.10451615  0.22463918  0.10990859     0.10500
H2946       H  0.14065523  0.20976317  0.10675683     0.11600
H2947       H  0.12334631  0.30382161  0.11614962     0.11700
H2948       H  0.08286017  0.24717969  0.10275582     0.13600
H2949       H  0.03706615  0.24104740  0.09617515     0.10100
H2950       H  0.00872078  0.26207380  0.08819634     0.12200
H2951       H  0.07243190  0.34683027  0.10194754     0.08800
H2952       H  0.10074917  0.32612381  0.10985413     0.11500
C2953       C  0.30645131  0.09193359  0.08149145    -0.03100
C2954       C  0.27841268  0.08408259  0.08559408    -0.05700
C2955       C  0.27324098  0.10449468  0.09120728    -0.20700
C2956       C  0.29576696  0.13354687  0.09284508     0.25000
C2957       C  0.32397056  0.14168348  0.08873608    -0.18300
C2958       C  0.32923744  0.12101994  0.08312724    -0.08300
C2959       C  0.28815608  0.15407317  0.09876248    -0.18600
C2960       C  0.30425167  0.18359995  0.09837618    -0.23400
C2961       C  0.29196258  0.20237743  0.10203698     0.27000
C2962       C  0.29871767  0.22732693  0.09535738    -0.20100
C2963       C  0.28262094  0.24158924  0.09666105    -0.09800
C2964       C  0.25990574  0.23160390  0.10485977    -0.10300
C2965       C  0.25545560  0.20889453  0.11251934    -0.03200
C2966       C  0.27133789  0.19430765  0.11111373    -0.18300
H2967       H  0.26029309  0.06189062  0.08460446     0.10700
H2968       H  0.25132110  0.09747749  0.09424671     0.10800
H2969       H  0.34209272  0.16371927  0.08996434     0.10500
H2970       H  0.35114423  0.12770920  0.08019158     0.11600
H2971       H  0.26657267  0.14417719  0.10266303     0.11700
H2972       H  0.32481870  0.19407704  0.09369260     0.13600
H2973       H  0.31469318  0.23423863  0.08840785     0.10100
H2974       H  0.28622336  0.25887883  0.09058030     0.12200
H2975       H  0.23784585  0.20060773  0.11881746     0.08800
H2976       H  0.26628066  0.17573077  0.11668368     0.11500
C2977       C  0.27590096  0.31513804  0.20238521    -0.03100
C2978       C  0.26004414  0.28475542  0.20026025    -0.05700
C2979       C  0.25100070  0.27384953  0.18892712    -0.20700
C2980       C  0.25797418  0.29293695  0.17936119     0.25000
C2981       C  0.27379583  0.32340644  0.18144113    -0.18300
C2982       C  0.28260170  0.33436846  0.19284169    -0.08300
C2983       C  0.24746303  0.28002705  0.16748959    -0.18600
C2984       C  0.26037729  0.29368652  0.15741582    -0.23400
C2985       C  0.25027750  0.28001062  0.14561508     0.27000
C2986       C  0.27025485  0.29000734  0.13630684    -0.20100
C2987       C  0.26148754  0.27827598  0.12503550    -0.09800
C2988       C  0.23239740  0.25661400  0.12278136    -0.10300
C2989       C  0.21237994  0.24647145  0.13205863    -0.03200
C2990       C  0.22114726  0.25803041  0.14334912    -0.18300
H2991       H  0.25444535  0.26927835  0.20739114     0.10700
H2992       H  0.23869342  0.25032918  0.18761505     0.10800
H2993       H  0.27898681  0.33884906  0.17434073     0.10500
H2994       H  0.29479921  0.35787528  0.19417465     0.11600
H2995       H  0.22941303  0.25760245  0.16714211     0.11700
H2996       H  0.28008275  0.31505288  0.15779822     0.13600
H2997       H  0.29273784  0.30705083  0.13775507     0.10100
H2998       H  0.27718501  0.28671843  0.11798337     0.12200
H2999       H  0.18981972  0.22977896  0.13051782     0.08800
H3000       H  0.20484626  0.25021816  0.15016776     0.11500
C3001       C  0.04617460  0.77279478  0.59409166    -0.03100
C3002       C  0.06859135  0.79526861  0.58749905    -0.05700
C3003       C  0.08879966  0.82167317  0.59273857    -0.20700
C3004       C  0.08666448  0.82666838  0.60463411     0.25000
C3005       C  0.06449663  0.80408038  0.61136121    -0.18300
C3006       C  0.04459159  0.77710337  0.60613840    -0.08300
C3007       C  0.10758847  0.85607847  0.60945331    -0.18600
C3008       C  0.09993968  0.86991971  0.61733994    -0.23400
C3009       C  0.11788229  0.90214869  0.61915454     0.27000
C3010       C  0.10353818  0.91835014  0.62006526    -0.20100
C3011       C  0.11933734  0.94895081  0.61942628    -0.09800
C3012       C  0.14986197  0.96394459  0.61819910    -0.10300
C3013       C  0.16455872  0.94797394  0.61837658    -0.03200
C3014       C  0.14867542  0.91724109  0.61878352    -0.18300
H3015       H  0.07069956  0.79227958  0.57824215     0.10700
H3016       H  0.10574315  0.83859787  0.58738771     0.10800
H3017       H  0.06267271  0.80718986  0.62061759     0.10500
H3018       H  0.02770199  0.75993205  0.61141407     0.11600
H3019       H  0.12837319  0.86849591  0.60497230     0.11700
H3020       H  0.07796614  0.85860780  0.62090489     0.13600
H3021       H  0.07988160  0.90725845  0.62041500     0.10100
H3022       H  0.10758982  0.96088643  0.61927064     0.12200
H3023       H  0.18807718  0.95910976  0.61734189     0.08800
H3024       H  0.16036894  0.90529941  0.61831510     0.11500
C3025       C  0.25865756  0.89793862  0.54015742    -0.03100
C3026       C  0.23959359  0.90363740  0.54660100    -0.05700
C3027       C  0.20984709  0.88294409  0.54712367    -0.20700
C3028       C  0.19849452  0.85591758  0.54131102     0.25000
C3029       C  0.21722625  0.85105804  0.53411419    -0.18300
C3030       C  0.24716317  0.87204385  0.53352767    -0.08300
C3031       C  0.16860784  0.83231713  0.54457419    -0.18600
C3032       C  0.15227781  0.80688218  0.53876932    -0.23400
C3033       C  0.12479776  0.78334185  0.54405030     0.27000
C3034       C  0.09892952  0.76830355  0.53741977    -0.20100
C3035       C  0.07253447  0.74808647  0.54282723    -0.09800
C3036       C  0.07188386  0.74206990  0.55487375    -0.10300
C3037       C  0.09826728  0.75590443  0.56126090    -0.03200
C3038       C  0.12429322  0.77633009  0.55594005    -0.18300
H3039       H  0.24811374  0.92330305  0.55190593     0.10700
H3040       H  0.19600224  0.88729689  0.55272565     0.10800
H3041       H  0.20939583  0.83032695  0.52965154     0.10500
H3042       H  0.26167425  0.86696916  0.52872743     0.11600
H3043       H  0.15981492  0.83570609  0.55262111     0.11700
H3044       H  0.15873307  0.80335649  0.53020884     0.13600
H3045       H  0.09891386  0.77312363  0.52820222     0.10100
H3046       H  0.05259104  0.73771536  0.53766711     0.12200
H3047       H  0.09868798  0.75187049  0.57054103     0.08800
H3048       H  0.14407793  0.78706028  0.56119644     0.11500
C3049       C  0.91051812  0.70498103  0.58227694    -0.03100
C3050       C  0.91857210  0.73409991  0.58501100    -0.05700
C3051       C  0.89837705  0.74087923  0.58979926    -0.20700
C3052       C  0.86948603  0.71885334  0.59210400     0.25000
C3053       C  0.86124750  0.68958862  0.58935614    -0.18300
C3054       C  0.88155676  0.68278172  0.58451061    -0.08300
C3055       C  0.84892472  0.72802246  0.59689386    -0.18600
C3056       C  0.82167611  0.70973697  0.60092262    -0.23400
C3057       C  0.80121973  0.72024903  0.60436457     0.27000
C3058       C  0.77117540  0.70218195  0.60212778    -0.20100
C3059       C  0.75193991  0.71299514  0.60341162    -0.09800
C3060       C  0.76217138  0.74177899  0.60733696    -0.10300
C3061       C  0.79163870  0.75892555  0.61067031    -0.03200
C3062       C  0.81105581  0.74832997  0.60916561    -0.18300
H3063       H  0.94063171  0.75183351  0.58345961     0.10700
H3064       H  0.90546445  0.76361055  0.59172712     0.10800
H3065       H  0.83918314  0.67186103  0.59076153     0.10500
H3066       H  0.87458384  0.66011028  0.58253800     0.11600
H3067       H  0.85659096  0.75137849  0.59675623     0.11700
H3068       H  0.81302917  0.68624499  0.60082767     0.13600
H3069       H  0.76289999  0.68036804  0.59856994     0.10100
H3070       H  0.72941513  0.69957193  0.60058369     0.12200
H3071       H  0.80013230  0.78137742  0.61350656     0.08800
H3072       H  0.83389526  0.76255039  0.61135579     0.11500
C3073       C  0.95583833  0.64132416  0.61096042    -0.03100
C3074       C  0.97207859  0.63276316  0.61806195    -0.05700
C3075       C  0.96265345  0.62205736  0.62940006    -0.20700
C3076       C  0.93725773  0.62039580  0.63397488     0.25000
C3077       C  0.92109943  0.62909282  0.62689997    -0.18300
C3078       C  0.93020734  0.63928765  0.61551240    -0.08300
C3079       C  0.92741787  0.60847192  0.64595006    -0.18600
C3080       C  0.91390600  0.61821344  0.65309337    -0.23400
C3081       C  0.90451458  0.60669141  0.66512743     0.27000
C3082       C  0.90713519  0.62599415  0.67409909    -0.20100
C3083       C  0.89886727  0.61582792  0.68555676    -0.09800
C3084       C  0.88673919  0.58587663  0.68823997    -0.10300
C3085       C  0.88294329  0.56638535  0.67908799    -0.03200
C3086       C  0.89213490  0.57671563  0.66770349    -0.18300
H3087       H  0.99181774  0.63391296  0.61479143     0.10700
H3088       H  0.97534703  0.61526803  0.63465250     0.10800
H3089       H  0.90105057  0.62742636  0.63005859     0.10500
H3090       H  0.91715604  0.64563829  0.61026569     0.11600
H3091       H  0.93279073  0.59233842  0.64919594     0.11700
H3092       H  0.91129925  0.63651622  0.65033842     0.13600
H3093       H  0.91638041  0.64916582  0.67229720     0.10100
H3094       H  0.90258683  0.63157634  0.69236347     0.12200
H3095       H  0.87264541  0.54308035  0.68065795     0.08800
H3096       H  0.88900046  0.56117700  0.66086916     0.11500
C3097       C  0.71396386  0.66285460  0.42695918    -0.03100
C3098       C  0.73360446  0.68250849  0.43532491    -0.05700
C3099       C  0.75556476  0.67815250  0.44015973    -0.20700
C3100       C  0.75789173  0.65367521  0.43699449     0.25000
C3101       C  0.73724932  0.63316500  0.42909536    -0.18300
C3102       C  0.71568255  0.63784878  0.42406959    -0.08300
C3103       C  0.78401844  0.65203627  0.44083614    -0.18600
C3104       C  0.78406740  0.62661958  0.44206668    -0.23400
C3105       C  0.81129408  0.62511910  0.44362615     0.27000
C3106       C  0.80984463  0.60048846  0.44907803    -0.20100
C3107       C  0.83378618  0.59592096  0.44880970    -0.09800
C3108       C  0.85932663  0.61554013  0.44280242    -0.10300
C3109       C  0.86139056  0.64097284  0.43790576    -0.03200
C3110       C  0.83772735  0.64585824  0.43837618    -0.18300
H3111       H  0.73307642  0.70216548  0.43762717     0.10700
H3112       H  0.77134355  0.69442127  0.44612834     0.10800
H3113       H  0.73875035  0.61439586  0.42624613     0.10500
H3114       H  0.70095682  0.62241284  0.41760716     0.11600
H3115       H  0.80409906  0.67262556  0.44243671     0.11700
H3116       H  0.76349484  0.60600097  0.44155672     0.13600
H3117       H  0.78968604  0.58407658  0.45310031     0.10100
H3118       H  0.83148304  0.57589673  0.45247367     0.12200
H3119       H  0.88077234  0.65625270  0.43312018     0.08800
H3120       H  0.83950948  0.66476653  0.43387246     0.11500
C3121       C  0.89500002  0.59650102  0.45895792    -0.03100
C3122       C  0.88776761  0.57311716  0.46668262    -0.05700
C3123       C  0.89348176  0.57836444  0.47872842    -0.20700
C3124       C  0.90634800  0.60701878  0.48328484     0.25000
C3125       C  0.91395638  0.63038484  0.47545456    -0.18300
C3126       C  0.90818919  0.62511495  0.46349079    -0.08300
C3127       C  0.91270297  0.61199421  0.49610452    -0.18600
C3128       C  0.91587073  0.63592922  0.50178700    -0.23400
C3129       C  0.92394131  0.64286849  0.51441624     0.27000
C3130       C  0.93171457  0.67105764  0.51848348    -0.20100
C3131       C  0.94014382  0.67916128  0.53014787    -0.09800
C3132       C  0.94083600  0.65916899  0.53810087    -0.10300
C3133       C  0.93255617  0.63075932  0.53411700    -0.03200
C3134       C  0.92420077  0.62266611  0.52243856    -0.18300
H3135       H  0.87748551  0.55086592  0.46345972     0.10700
H3136       H  0.88767773  0.55996093  0.48452206     0.10800
H3137       H  0.92505761  0.65289826  0.47842667     0.10500
H3138       H  0.91463138  0.64358005  0.45766584     0.11600
H3139       H  0.91471421  0.59527522  0.50085274     0.11700
H3140       H  0.91280872  0.65187840  0.49691565     0.13600
H3141       H  0.93160841  0.68708553  0.51256142     0.10100
H3142       H  0.94628795  0.70117281  0.53291256     0.12200
H3143       H  0.93271253  0.61473115  0.54002014     0.08800
H3144       H  0.91789667  0.60055808  0.51985487     0.11500
C3145       C  0.96963157  0.42638305  0.41602869    -0.03100
C3146       C  0.99268761  0.45203435  0.42099060    -0.05700
C3147       C  0.98783792  0.47384767  0.42548856    -0.20700
C3148       C  0.95972148  0.47030446  0.42544454     0.25000
C3149       C  0.93644937  0.44454421  0.42058148    -0.18300
C3150       C  0.94142688  0.42287095  0.41583626    -0.08300
C3151       C  0.95611588  0.49493234  0.42972788    -0.18600
C3152       C  0.93179049  0.49125812  0.43506318    -0.23400
C3153       C  0.92700952  0.51591205  0.43855495     0.27000
C3154       C  0.89869813  0.50921877  0.44179946    -0.20100
C3155       C  0.89191024  0.53149468  0.44333653    -0.09800
C3156       C  0.91341086  0.56100289  0.44184220    -0.10300
C3157       C  0.94216161  0.56793925  0.43945843    -0.03200
C3158       C  0.94904716  0.54572707  0.43796644    -0.18300
H3159       H  0.01467723  0.45546897  0.42125428     0.10700
H3160       H  0.00616102  0.49359759  0.42906237     0.10800
H3161       H  0.91462089  0.44147316  0.42015469     0.10500
H3162       H  0.92321621  0.40329841  0.41210339     0.11600
H3163       H  0.97462912  0.51671377  0.42844275     0.11700
H3164       H  0.91392660  0.46904273  0.43649253     0.13600
H3165       H  0.88127456  0.48658337  0.44241613     0.10100
H3166       H  0.86934435  0.52553450  0.44473269     0.12200
H3167       H  0.95894934  0.59054818  0.43801653     0.08800
H3168       H  0.97138536  0.55230505  0.43587605     0.11500
C3169       C  0.27041315  0.39613558  0.55529067    -0.03100
C3170       C  0.27357013  0.42241754  0.55967543    -0.05700
C3171       C  0.25920186  0.43552742  0.55430700    -0.20700
C3172       C  0.24087398  0.42245822  0.54455915     0.25000
C3173       C  0.23812455  0.39640477  0.53998425    -0.18300
C3174       C  0.25290262  0.38346142  0.54528029    -0.08300
C3175       C  0.22536225  0.43705419  0.53956293    -0.18600
C3176       C  0.20087207  0.42372318  0.53290787    -0.23400
C3177       C  0.18431923  0.43884533  0.52981047     0.27000
C3178       C  0.15358482  0.42277483  0.52937978    -0.20100
C3179       C  0.13747821  0.43732744  0.52900072    -0.09800
C3180       C  0.15199395  0.46810600  0.52898547    -0.10300
C3181       C  0.18257537  0.48392777  0.52807600    -0.03200
C3182       C  0.19859496  0.46946183  0.52837158    -0.18300
H3183       H  0.28697267  0.43273445  0.56734808     0.10700
H3184       H  0.26193397  0.45570734  0.55796532     0.10800
H3185       H  0.22472117  0.38599851  0.53234092     0.10500
H3186       H  0.24996155  0.36309642  0.54174759     0.11600
H3187       H  0.23325208  0.45944332  0.54241626     0.11700
H3188       H  0.19092602  0.40054546  0.53089708     0.13600
H3189       H  0.14205187  0.39912509  0.53026525     0.10100
H3190       H  0.11389911  0.42467300  0.52978200     0.12200
H3191       H  0.19419362  0.50768694  0.52793793     0.08800
H3192       H  0.22222081  0.48245389  0.52810133     0.11500
C3193       C  0.07619090  0.49680586  0.53640932    -0.03100
C3194       C  0.05673251  0.48305916  0.54569934    -0.05700
C3195       C  0.04008177  0.49474277  0.55012470    -0.20700
C3196       C  0.04214087  0.52018039  0.54524201     0.25000
C3197       C  0.05950824  0.53233226  0.53521134    -0.18300
C3198       C  0.07652275  0.52081551  0.53088779    -0.08300
C3199       C  0.02982588  0.53585394  0.55186943    -0.18600
C3200       C  0.02140792  0.55371335  0.54693938    -0.23400
C3201       C  0.01243497  0.57155295  0.55404511     0.27000
C3202       C  0.98964794  0.57586080  0.55009317    -0.20100
C3203       C  0.98220341  0.59416197  0.55626935    -0.09800
C3204       C  0.99813374  0.60933497  0.56628172    -0.10300
C3205       C  0.02102789  0.60519114  0.57021392    -0.03200
C3206       C  0.02782990  0.58614223  0.56427029    -0.18300
H3207       H  0.05683559  0.46518546  0.55037201     0.10700
H3208       H  0.02706116  0.48503174  0.55788321     0.10800
H3209       H  0.06210619  0.55228856  0.53136129     0.10500
H3210       H  0.09220030  0.53252709  0.52403615     0.11600
H3211       H  0.02789203  0.53272623  0.56129919     0.11700
H3212       H  0.02060509  0.55501909  0.53746781     0.13600
H3213       H  0.97773878  0.56520649  0.54215844     0.10100
H3214       H  0.96490754  0.59754573  0.55292147     0.12200
H3215       H  0.03392177  0.61704494  0.57780075     0.08800
H3216       H  0.04594255  0.58381104  0.56738453     0.11500
C3217       C  0.03071972  0.37706717  0.44291799    -0.03100
C3218       C  0.05977332  0.40012540  0.44398233    -0.05700
C3219       C  0.07182456  0.41172360  0.45496690    -0.20700
C3220       C  0.05514661  0.40104773  0.46520866     0.25000
C3221       C  0.02613297  0.37764446  0.46421038    -0.18300
C3222       C  0.01412436  0.36575080  0.45317950    -0.08300
C3223       C  0.06926865  0.41499106  0.47661546    -0.18600
C3224       C  0.05477736  0.41464586  0.48640385    -0.23400
C3225       C  0.06951054  0.43149116  0.49734798     0.27000
C3226       C  0.05324005  0.42543548  0.50775565    -0.20100
C3227       C  0.06611108  0.44131768  0.51809260    -0.09800
C3228       C  0.09559712  0.46350440  0.51823350    -0.10300
C3229       C  0.11172166  0.46986675  0.50785090    -0.03200
C3230       C  0.09893270  0.45430249  0.49754767    -0.18300
H3231       H  0.07327251  0.40929447  0.43630302     0.10700
H3232       H  0.09428764  0.42956397  0.45543640     0.10800
H3233       H  0.01274226  0.36826431  0.47188200     0.10500
H3234       H  0.99169029  0.34791241  0.45267218     0.11600
H3235       H  0.09296101  0.42721244  0.47662259     0.11700
H3236       H  0.03105118  0.40216914  0.48639110     0.13600
H3237       H  0.03050279  0.40823334  0.50790412     0.10100
H3238       H  0.05330865  0.43587903  0.52602182     0.12200
H3239       H  0.13441917  0.48714604  0.50773361     0.08800
H3240       H  0.11230136  0.46079173  0.48979077     0.11500
loop_ 
_geom_bond_atom_site_label_1 
_geom_bond_atom_site_label_2 
_geom_bond_distance 
_geom_bond_site_symmetry_2 
_ccdc_geom_bond_type 
N1            C5   1.361       .  A
N1            C2   1.363       .  A
N1         C3228   1.445       .  S
C2            C3   1.381       .  A
C2         C3193   1.477       .  S
C3            C4   1.368       .  A
C3            H6   1.082       .  S
C4            C5   1.381       .  A
C4            H7   1.082       .  S
C5         C3180   1.480       .  S
N8           C12   1.361       .  A
N8            C9   1.360       .  A
N8         C3121   1.444       .  S
C9           C10   1.381       .  A
C9         C3156   1.477       .  S
C10          C11   1.371       .  A
C10          H13   1.082       .  S
C11          C12   1.382       .  A
C11          H14   1.082       .  S
C12        C3108   1.483       .  S
O15         Cr33   1.971       .  S
O15          C23   1.256       .  A
O16         Cr33   2.021       .  S
O16          C17   1.270       .  A
C17        C3204   1.480       .  S
C17          O18   1.260   1_655  A
O18         Cr34   1.971       .  S
O19         Cr34   2.009       .  S
O19          C20   1.268       .  A
C20        C3036   1.485       .  S
C20          O21   1.264       .  A
O21         Cr35   1.990   1_455  S
O22         Cr35   2.018       .  S
O22          C23   1.266       .  A
C23        C3132   1.487       .  S
O24         Cr33   2.027       .  S
O24          C32   1.271       .  A
O25         Cr33   1.974       .  S
O25          C26   1.257       .  A
C26        C3073   1.485       .  S
C26          O27   1.266       .  A
O27         Cr34   2.016   1_655  S
O28         Cr34   1.991       .  S
O28          C29   1.262       .  A
C29        C3001   1.478       .  S
C29          O30   1.266       .  A
O30         Cr35   2.006   1_455  S
O31         Cr35   1.977       .  S
O31          C32   1.262       .  A
C32        C3049   1.494       .  S
Cr33         O36   1.775       .  S
Cr34         O36   1.778   1_455  S
Cr35         O36   1.775       .  S
N37          C41   1.361       .  A
N37          C38   1.362       .  A
N37        C2988   1.443       .  S
C38          C39   1.383       .  A
C38        C2964   1.480       .  S
C39          C40   1.370       .  A
C39          H42   1.082       .  S
C40          C41   1.380       .  A
C40          H43   1.082       .  S
C41        C2929   1.478       .  S
N44          C48   1.360       .  A
N44          C45   1.362       .  A
N44        C2881   1.444       .  S
C45          C46   1.385       .  A
C45        C2905   1.483       .  S
C46          C47   1.370       .  A
C46          H49   1.082       .  S
C47          C48   1.379       .  A
C47          H50   1.082       .  S
C48        C2868   1.474       .  S
O51         Cr69   2.032       .  S
O51          C59   1.272       .  A
O52         Cr69   1.964       .  S
O52          C53   1.257       .  A
C53        C2892   1.487       .  S
C53          O54   1.270       .  A
O54         Cr70   2.026   1_545  S
O55         Cr70   1.975       .  S
O55          C56   1.260       .  A
C56        C2785   1.486       .  S
C56          O57   1.269       .  A
O57         Cr71   2.021   1_565  S
O58         Cr71   1.960       .  S
O58          C59   1.258       .  A
C59        C2953   1.490       .  S
O60         Cr69   1.961       .  S
O60          C68   1.254       .  A
O61         Cr69   2.023       .  S
O61          C62   1.269       .  A
C62        C2809   1.490   1_545  S
C62          O63   1.258   1_545  A
O63         Cr70   1.967       .  S
O64         Cr70   2.018       .  S
O64          C65   1.270       .  A
C65        C2772   1.481       .  S
C65          O66   1.261       .  A
O66         Cr71   1.972   1_565  S
O67         Cr71   2.034       .  S
O67          C68   1.268       .  A
C68        C2844   1.484       .  S
Cr69         O72   1.775       .  S
Cr70         O72   1.773   1_565  S
Cr71         O72   1.776       .  S
O73         Cr91   1.973       .  S
O73          C81   1.259       .  A
O74         Cr91   2.019       .  S
O74          C75   1.268       .  A
C75        C2916   1.488       .  S
C75          O76   1.259       .  A
O76         Cr92   1.976       .  S
O77         Cr92   1.997       .  S
O77          C78   1.265       .  A
C78        C2689   1.483       .  S
C78          O79   1.263       .  A
O79         Cr93   1.993       .  S
O80         Cr93   2.017       .  S
O80          C81   1.268       .  A
C81        C2977   1.488       .  S
O82         Cr91   2.014       .  S
O82          C90   1.267       .  A
O83         Cr91   1.970       .  S
O83          C84   1.257       .  A
C84        C2737   1.487       .  S
C84          O85   1.267       .  A
O85         Cr92   2.020       .  S
O86         Cr92   1.986       .  S
O86          C87   1.264       .  A
C87        C2665   1.483       .  S
C87          O88   1.268       .  A
O88         Cr93   2.000       .  S
O89         Cr93   1.984       .  S
O89          C90   1.261       .  A
C90        C2713   1.489       .  S
Cr91         O94   1.779       .  S
Cr92         O94   1.778       .  S
Cr93         O94   1.780       .  S
N95          C99   1.357       .  A
N95          C96   1.358       .  A
N95        C2748   1.439       .  S
C96          C97   1.383       .  A
C96        C2652   1.477       .  S
C97          C98   1.370       .  A
C97         H100   1.082       .  S
C98          C99   1.381       .  A
C98         H101   1.082       .  S
C99        C2617   1.475       .  S
N102        C106   1.361       .  A
N102        C103   1.365       .  A
N102       C2593   1.443       .  S
C103        C104   1.386       .  A
C103       C2724   1.489       .  S
C104        C105   1.369       .  A
C104        H107   1.082       .  S
C105        C106   1.377       .  A
C105        H108   1.082       .  S
C106       C2580   1.476       .  S
O109       Cr127   1.972       .  S
O109        C117   1.259       .  A
O110       Cr127   2.008       .  S
O110        C111   1.265   1_455  A
C111       C2604   1.492   1_655  S
C111        O112   1.260       .  A
O112       Cr128   1.990       .  S
O113       Cr128   2.008       .  S
O113        C114   1.267       .  A
C114       C2532   1.484       .  S
C114        O115   1.262       .  A
O115       Cr129   1.979       .  S
O116       Cr129   2.015   1_455  S
O116        C117   1.268       .  A
C117       C2641   1.482       .  S
O118       Cr127   2.014       .  S
O118        C126   1.267       .  A
O119       Cr127   1.970   1_655  S
O119        C120   1.261       .  A
C120       C3145   1.485       .  S
C120        O121   1.271       .  A
O121       Cr128   2.022       .  S
O122       Cr128   1.990       .  S
O122        C123   1.263       .  A
C123       C2545   1.488       .  S
C123        O124   1.265       .  A
O124       Cr129   2.001       .  S
O125       Cr129   1.990       .  S
O125        C126   1.262   1_655  A
C126       C3217   1.490       .  S
Cr127       O130   1.775   1_455  S
Cr128       O130   1.777       .  S
Cr129       O130   1.772       .  S
N131        C135   1.363       .  A
N131        C132   1.363       .  A
N131       C2497   1.447       .  S
C132        C133   1.380       .  A
C132       C2820   1.477       .  S
C133        C134   1.369       .  A
C133        H136   1.082       .  S
C134        C135   1.381       .  A
C134        H137   1.082       .  S
C135       C2484   1.481       .  S
N138        C142   1.363       .  A
N138        C139   1.362       .  A
N138       C2833   1.448       .  S
C139        C140   1.381       .  A
C139       C2449   1.479       .  S
C140        C141   1.370       .  A
C140        H143   1.082       .  S
C141        C142   1.380       .  A
C141        H144   1.082       .  S
C142       C2425   1.476       .  S
O145       Cr163   2.009   1_545  S
O145        C153   1.265       .  A
O146       Cr163   1.979       .  S
O146        C147   1.261       .  A
C147       C2377   1.484       .  S
C147        O148   1.269       .  A
O148       Cr164   2.020   1_565  S
O149       Cr164   1.995       .  S
O149        C150   1.265       .  A
C150       C2329   1.488       .  S
C150        O151   1.265       .  A
O151       Cr165   2.000       .  S
O152       Cr165   1.988       .  S
O152        C153   1.262       .  A
C153       C2412   1.489       .  S
O154       Cr163   1.987   1_545  S
O154        C162   1.263       .  A
O155       Cr163   2.006       .  S
O155        C156   1.265       .  A
C156       C2508   1.490       .  S
C156        O157   1.262   1_565  A
O157       Cr164   1.993       .  S
O158       Cr164   2.007       .  S
O158        C159   1.268       .  A
C159       C2353   1.487       .  S
C159        O160   1.264       .  A
O160       Cr165   1.986       .  S
O161       Cr165   2.010       .  S
O161        C162   1.268       .  A
C162       C2460   1.488       .  S
Cr163       O166   1.774   1_565  S
Cr164       O166   1.772       .  S
Cr165       O166   1.770       .  S
N167        C171   1.364       .  A
N167        C168   1.365       .  A
N167       C3084   1.451       .  S
C168        C169   1.383       .  A
C168       C2305   1.482       .  S
C169        C170   1.367       .  A
C169        H172   1.082       .  S
C170        C171   1.379       .  A
C170        H173   1.082       .  S
C171       C2292   1.474       .  S
N174        C178   1.362       .  A
N174        C175   1.362       .  A
N174       C2257   1.446       .  S
C175        C176   1.382       .  A
C175       C3060   1.481       .  S
C176        C177   1.372       .  A
C176        H179   1.082       .  S
C177        C178   1.379       .  A
C177        H180   1.082       .  S
C178       C2233   1.478       .  S
N181        C185   1.362       .  A
N181        C182   1.362       .  A
N181       C2401   1.445       .  S
C182        C183   1.380       .  A
C182       C2209   1.475       .  S
C183        C184   1.368       .  A
C183        H186   1.082       .  S
C184        C185   1.383       .  A
C184        H187   1.082       .  S
C185       C2196   1.481       .  S
N188        C192   1.362       .  A
N188        C189   1.362       .  A
N188       C2161   1.446       .  S
C189        C190   1.380       .  A
C189       C2388   1.475       .  S
C190        C191   1.369       .  A
C190        H193   1.082       .  S
C191        C192   1.381       .  A
C191        H194   1.082       .  S
C192       C2137   1.479       .  S
O195       Cr213   2.017       .  S
O195        C203   1.269       .  A
O196       Cr213   1.972       .  S
O196        C197   1.258       .  A
C197       C2268   1.485       .  S
C197        O198   1.269       .  A
O198       Cr214   2.027       .  S
O199       Cr214   1.985       .  S
O199        C200   1.262       .  A
C200       C2089   1.484       .  S
C200        O201   1.268       .  A
O201       Cr215   2.009       .  S
O202       Cr215   1.976       .  S
O202        C203   1.261       .  A
C203       C2316   1.485       .  S
O204       Cr213   1.972       .  S
O204        C212   1.258       .  A
O205       Cr213   2.017       .  S
O205        C206   1.268       .  A
C206       C2220   1.488       .  S
C206        O207   1.260       .  A
O207       Cr214   1.973       .  S
O208       Cr214   2.017       .  S
O208        C209   1.269       .  A
C209       C2124   1.481       .  S
C209        O210   1.263       .  A
O210       Cr215   1.986       .  S
O211       Cr215   2.022       .  S
O211        C212   1.268       .  A
C212       C2172   1.482       .  S
Cr213       O216   1.769       .  S
Cr214       O216   1.771       .  S
Cr215       O216   1.768       .  S
N217        C221   1.360       .  A
N217        C218   1.359       .  A
N217       C2065   1.441       .  S
C218        C219   1.381       .  A
C218       C2041   1.474       .  S
C219        C220   1.371       .  A
C219        H222   1.082       .  S
C220        C221   1.381       .  A
C220        H223   1.082       .  S
C221       C2113   1.475       .  S
N224        C228   1.362       .  A
N224        C225   1.361   1_655  A
N224       C2004   1.444       .  S
C225        C226   1.381       .  A
C225       C2017   1.477       .  S
C226        C227   1.370   1_455  A
C226        H229   1.082       .  S
C227        C228   1.383       .  A
C227        H230   1.082       .  S
C228       C2340   1.485       .  S
O231       Cr249   2.014   1_455  S
O231        C239   1.267       .  A
O232       Cr249   1.967       .  S
O232        C233   1.257       .  A
C233       C1993   1.492       .  S
C233        O234   1.269       .  A
O234       Cr250   2.032       .  S
O235       Cr250   1.987       .  S
O235        C236   1.263   1_655  A
C236       C1921   1.481       .  S
C236        O237   1.269       .  A
O237       Cr251   2.015       .  S
O238       Cr251   1.973       .  S
O238        C239   1.260       .  A
C239       C2052   1.485       .  S
O240       Cr249   1.962       .  S
O240        C248   1.257       .  A
O241       Cr249   2.015       .  S
O241        C242   1.268       .  A
C242       C1945   1.486       .  S
C242        O243   1.260       .  A
O243       Cr250   1.974       .  S
O244       Cr250   2.014       .  S
O244        C245   1.269       .  A
C245       C2281   1.483       .  S
C245        O246   1.262       .  A
O246       Cr251   1.979   1_655  S
O247       Cr251   2.032       .  S
O247        C248   1.270   1_455  A
C248       C1969   1.488       .  S
Cr249       O252   1.772       .  S
Cr250       O252   1.772       .  S
Cr251       O252   1.774   1_455  S
O253       Cr271   1.970       .  S
O253        C261   1.260       .  A
O254       Cr271   2.015       .  S
O254        C255   1.267       .  A
C255       C1873   1.483       .  S
C255        O256   1.259       .  A
O256       Cr272   1.977       .  S
O257       Cr272   2.009       .  S
O257        C258   1.267       .  A
C258       C2436   1.484       .  S
C258        O259   1.262       .  A
O259       Cr273   1.983       .  S
O260       Cr273   2.025       .  S
O260        C261   1.270       .  A
C261       C1897   1.488       .  S
O262       Cr271   2.007       .  S
O262        C270   1.265       .  A
O263       Cr271   1.965       .  S
O263        C264   1.257       .  A
C264       C2076   1.486       .  S
C264        O265   1.270       .  A
O265       Cr272   2.033       .  S
O266       Cr272   1.986       .  S
O266        C267   1.264       .  A
C267       C1849   1.487       .  S
C267        O268   1.269       .  A
O268       Cr273   2.008       .  S
O269       Cr273   1.981       .  S
O269        C270   1.260       .  A
C270       C2028   1.484       .  S
Cr271       O274   1.774       .  S
Cr272       O274   1.775       .  S
Cr273       O274   1.774       .  S
N275        C279   1.362       .  A
N275        C276   1.363       .  A
N275       C1908   1.444       .  S
C276        C277   1.383       .  A
C276       C1836   1.483       .  S
C277        C278   1.369       .  A
C277        H280   1.082       .  S
C278        C279   1.379       .  A
C278        H281   1.082       .  S
C279       C1812   1.476       .  S
N282        C286   1.358       .  A
N282        C283   1.360       .  A
N282       C1777   1.442       .  S
C283        C284   1.384       .  A
C283       C1884   1.481       .  S
C284        C285   1.371       .  A
C284        H287   1.082       .  S
C285        C286   1.380       .  A
C285        H288   1.082       .  S
C286       C1753   1.474       .  S
O289       Cr307   2.023       .  S
O289        C297   1.271       .  A
O290       Cr307   1.976       .  S
O290        C291   1.258       .  A
C291       C1740   1.490       .  S
C291        O292   1.267       .  A
O292       Cr308   2.016       .  S
O293       Cr308   1.983       .  S
O293        C294   1.260       .  A
C294       C1681   1.482       .  S
C294        O295   1.265       .  A
O295       Cr309   2.005       .  S
O296       Cr309   1.975       .  S
O296        C297   1.261       .  A
C297       C1716   1.490       .  S
O298       Cr307   1.978       .  S
O298        C306   1.257       .  A
O299       Cr307   2.025       .  S
O299        C300   1.270       .  A
C300       C1825   1.486       .  S
C300        O301   1.259       .  A
O301       Cr308   1.962       .  S
O302       Cr308   2.012       .  S
O302        C303   1.270       .  A
C303       C2473   1.485       .  S
C303        O304   1.265       .  A
O304       Cr309   1.985       .  S
O305       Cr309   2.020       .  S
O305        C306   1.267       .  A
C306       C1788   1.491       .  S
Cr307       O310   1.780       .  S
Cr308       O310   1.777       .  S
Cr309       O310   1.779       .  S
N311        C315   1.363       .  A
N311        C312   1.364       .  A
N311       C1657   1.448       .  S
C312        C313   1.384       .  A
C312       C1956   1.484       .  S
C313        C314   1.369       .  A
C313        H316   1.082       .  S
C314        C315   1.378       .  A
C314        H317   1.082       .  S
C315       C1633   1.475       .  S
N318        C322   1.360   1_655  A
N318        C319   1.360       .  A
N318       C1980   1.441       .  S
C319        C320   1.382       .  A
C319       C1609   1.478       .  S
C320        C321   1.370       .  A
C320        H323   1.082       .  S
C321        C322   1.382   1_655  A
C321        H324   1.082   1_655  S
C322       C1585   1.479       .  S
N325        C329   1.361       .  A
N325        C326   1.363       .  A
N325       C1561   1.446       .  S
C326        C327   1.381       .  A
C326       C1548   1.476       .  S
C327        C328   1.369       .  A
C327        H330   1.083       .  S
C328        C329   1.381       .  A
C328        H331   1.082       .  S
C329       C3025   1.478       .  S
N332        C336   1.360       .  A
N332        C333   1.362       .  A
N332       C1500   1.441       .  S
C333        C334   1.384       .  A
C333       C1513   1.486       .  S
C334        C335   1.371       .  A
C334        H337   1.082       .  S
C335        C336   1.380       .  A
C335        H338   1.082       .  S
C336       C2556   1.478       .  S
O339       Cr357   1.979       .  S
O339        C347   1.260       .  A
O340       Cr357   2.014       .  S
O340        C341   1.266       .  A
C341       C1537   1.487   1_545  S
C341        O342   1.260   1_545  A
O342       Cr358   1.974       .  S
O343       Cr358   2.002       .  S
O343        C344   1.268       .  A
C344       C1465   1.480       .  S
C344        O345   1.264       .  A
O345       Cr359   1.984   1_565  S
O346       Cr359   2.020       .  S
O346        C347   1.269       .  A
C347       C1489   1.490       .  S
O348       Cr357   2.011       .  S
O348        C356   1.266       .  A
O349       Cr357   1.973       .  S
O349        C350   1.259       .  A
C350       C1668   1.482       .  S
C350        O351   1.268       .  A
O351       Cr358   2.020   1_545  S
O352       Cr358   1.995       .  S
O352        C353   1.264       .  A
C353       C2244   1.484       .  S
C353        O354   1.264       .  A
O354       Cr359   1.997   1_565  S
O355       Cr359   1.979       .  S
O355        C356   1.260       .  A
C356       C1620   1.484       .  S
Cr357       O360   1.778       .  S
Cr358       O360   1.775   1_565  S
Cr359       O360   1.773       .  S
O361       Cr379   2.020       .  S
O361        C369   1.269   1_565  A
O362       Cr379   1.967       .  S
O362        C363   1.258       .  A
C363       C1572   1.493       .  S
C363        O364   1.271       .  A
O364       Cr380   2.031   1_565  S
O365       Cr380   1.971       .  S
O365        C366   1.260       .  A
C366       C1393   1.484       .  S
C366        O367   1.270       .  A
O367       Cr381   2.023       .  S
O368       Cr381   1.975       .  S
O368        C369   1.259       .  A
C369       C1524   1.489       .  S
O370       Cr379   1.966       .  S
O370        C378   1.258       .  A
O371       Cr379   2.023       .  S
O371        C372   1.268       .  A
C372       C1417   1.489       .  S
C372        O373   1.258       .  A
O373       Cr380   1.967   1_565  S
O374       Cr380   2.019       .  S
O374        C375   1.269       .  A
C375       C2628   1.483       .  S
C375        O376   1.261       .  A
O376       Cr381   1.973       .  S
O377       Cr381   2.035       .  S
O377        C378   1.272   1_545  A
C378       C1441   1.492       .  S
Cr379       O382   1.775   1_565  S
Cr380       O382   1.774       .  S
Cr381       O382   1.774       .  S
N383        C387   1.360       .  A
N383        C384   1.362   1_655  A
N383       C1380   1.447       .  S
C384        C385   1.381   1_455  A
C384       C1428   1.476       .  S
C385        C386   1.370       .  A
C385        H388   1.082   1_655  S
C386        C387   1.380       .  A
C386        H389   1.082       .  S
C387       C1345   1.473       .  S
N390        C394   1.361       .  A
N390        C391   1.360       .  A
N390       C1452   1.444       .  S
C391        C392   1.380       .  A
C391       C1332   1.473       .  S
C392        C393   1.370       .  A
C392        H395   1.082       .  S
C393        C394   1.383       .  A
C393        H396   1.082       .  S
C394       C1308   1.480       .  S
N397        C401   1.367   1_655  A
N397        C398   1.367       .  A
N397       C1284   1.455       .  S
C398        C399   1.381       .  A
C398       C1705   1.485       .  S
C399        C400   1.366   1_655  A
C399        H402   1.082       .  S
C400        C401   1.380       .  A
C400        H403   1.082       .  S
C401       C2796   1.478       .  S
N404        C408   1.365       .  A
N404        C405   1.363       .  A
N404       C1729   1.445       .  S
C405        C406   1.379       .  A
C405       C1249   1.477       .  S
C406        C407   1.367       .  A
C406        H409   1.082       .  S
C407        C408   1.384       .  A
C407        H410   1.082       .  S
C408       C2700   1.489       .  S
O411       Cr429   1.979       .  S
O411        C419   1.257       .  A
O412       Cr429   2.022   1_455  S
O412        C413   1.269       .  A
C413       C1321   1.484       .  S
C413        O414   1.259       .  A
O414       Cr430   1.962       .  S
O415       Cr430   2.009       .  S
O415        C416   1.269       .  A
C416       C2569   1.485       .  S
C416        O417   1.264   1_455  A
O417       Cr431   1.989       .  S
O418       Cr431   2.018       .  S
O418        C419   1.265       .  A
C419       C1369   1.484       .  S
O420       Cr429   2.025       .  S
O420        C428   1.271       .  A
O421       Cr429   1.978       .  S
O421        C422   1.258       .  A
C422       C1273   1.489       .  S
C422        O423   1.266   1_655  A
O423       Cr430   2.018       .  S
O424       Cr430   1.985   1_655  S
O424        C425   1.262       .  A
C425       C1225   1.480       .  S
C425        O426   1.266       .  A
O426       Cr431   2.004       .  S
O427       Cr431   1.963       .  S
O427        C428   1.260       .  A
C428       C1260   1.487       .  S
Cr429       O432   1.777       .  S
Cr430       O432   1.775   1_455  S
Cr431       O432   1.777       .  S
N433        C437   1.358       .  A
N433        C434   1.358       .  A
N433       C1201   1.439       .  S
C434        C435   1.381       .  A
C434       C1177   1.474       .  S
C435        C436   1.372       .  A
C435        H438   1.082       .  S
C436        C437   1.380       .  A
C436        H439   1.082       .  S
C437       C1932   1.474       .  S
N440        C444   1.361       .  A
N440        C441   1.362   1_545  A
N440       C1140   1.444       .  S
C441        C442   1.380   1_565  A
C441       C1153   1.477       .  S
C442        C443   1.370       .  A
C442        H445   1.082   1_545  S
C443        C444   1.384       .  A
C443        H446   1.082       .  S
C444       C1860   1.485       .  S
O447       Cr465   2.021       .  S
O447        C455   1.268       .  A
O448       Cr465   1.963       .  S
O448        C449   1.258   1_545  A
C449       C1105   1.486       .  S
C449        O450   1.269       .  A
O450       Cr466   2.025       .  S
O451       Cr466   1.983   1_545  S
O451        C452   1.261       .  A
C452       C1644   1.477       .  S
C452        O453   1.266       .  A
O453       Cr467   2.004       .  S
O454       Cr467   1.967       .  S
O454        C455   1.259       .  A
C455       C1081   1.486       .  S
O456       Cr465   1.974       .  S
O456        C464   1.258       .  A
O457       Cr465   2.013   1_565  S
O457        C458   1.267       .  A
C458       C1188   1.485       .  S
C458        O459   1.260       .  A
O459       Cr466   1.973       .  S
O460       Cr466   2.009       .  S
O460        C461   1.269       .  A
C461       C2185   1.485       .  S
C461        O462   1.263   1_565  A
O462       Cr467   1.983       .  S
O463       Cr467   2.018       .  S
O463        C464   1.267       .  A
C464       C1129   1.486       .  S
Cr465       O468   1.775       .  S
Cr466       O468   1.777   1_565  S
Cr467       O468   1.773       .  S
N469        C473   1.359       .  A
N469        C470   1.361   1_545  A
N469       C1068   1.443       .  S
C470        C471   1.384   1_565  A
C470       C1044   1.481       .  S
C471        C472   1.370       .  A
C471        H474   1.082   1_545  S
C472        C473   1.379       .  A
C472        H475   1.082       .  S
C473       C2521   1.475       .  S
N476        C480   1.359       .  A
N476        C477   1.360       .  A
N476        C996   1.442       .  S
C477        C478   1.381       .  A
C477       C1009   1.475       .  S
C478        C479   1.371       .  A
C478        H481   1.082       .  S
C479        C480   1.383       .  A
C479        H482   1.082       .  S
C480       C2676   1.481       .  S
N483        C487   1.360       .  A
N483        C484   1.361       .  A
N483        C972   1.447       .  S
C484        C485   1.381       .  A
C484        C937   1.474       .  S
C485        C486   1.370       .  A
C485        H488   1.082       .  S
C486        C487   1.380       .  A
C486        H489   1.082       .  S
C487       C2761   1.475       .  S
N490        C494   1.359       .  A
N490        C491   1.361       .  A
N490        C889   1.444       .  S
C491        C492   1.383       .  A
C491        C913   1.478       .  S
C492        C493   1.370       .  A
C492        H495   1.082       .  S
C493        C494   1.379       .  A
C493        H496   1.082       .  S
C494       C2364   1.473       .  S
N497        C501   1.358   1_545  A
N497        C498   1.359       .  A
N497        C876   1.442       .  S
C498        C499   1.383       .  A
C498        C852   1.479       .  S
C499        C500   1.372   1_545  A
C499        H502   1.082       .  S
C500        C501   1.380       .  A
C500        H503   1.082       .  S
C501       C1692   1.473       .  S
N504        C508   1.361       .  A
N504        C505   1.363       .  A
N504        C804   1.444       .  S
C505        C506   1.385       .  A
C505        C817   1.487       .  S
C506        C507   1.370       .  A
C506        H509   1.082       .  S
C507        C508   1.378       .  A
C507        H510   1.082       .  S
C508       C1236   1.476       .  S
O511       Cr529   1.978       .  S
O511        C519   1.261       .  A
O512       Cr529   2.004       .  S
O512        C513   1.263       .  A
C513        C900   1.488       .  S
C513        O514   1.260       .  A
O514       Cr530   1.989       .  S
O515       Cr530   2.016   1_455  S
O515        C516   1.269       .  A
C516       C1801   1.487       .  S
C516        O517   1.262       .  A
O517       Cr531   1.977       .  S
O518       Cr531   2.018       .  S
O518        C519   1.269   1_455  A
C519        C948   1.486   1_655  S
O520       Cr529   2.009       .  S
O520        C528   1.266       .  A
O521       Cr529   1.972       .  S
O521        C522   1.262       .  A
C522        C841   1.485       .  S
C522        O523   1.272       .  A
O523       Cr530   2.022       .  S
O524       Cr530   1.984   1_455  S
O524        C525   1.261       .  A
C525       C2940   1.488       .  S
C525        O526   1.265       .  A
O526       Cr531   2.007       .  S
O527       Cr531   1.990   1_655  S
O527        C528   1.261       .  A
C528        C793   1.486       .  S
Cr529       O532   1.775       .  S
Cr530       O532   1.773       .  S
Cr531       O532   1.772   1_455  S
O533       Cr551   1.975       .  S
O533        C541   1.259       .  A
O534       Cr551   2.018   1_565  S
O534        C535   1.268       .  A
C535       C1020   1.488       .  S
C535        O536   1.260       .  A
O536       Cr552   1.974       .  S
O537       Cr552   2.005       .  S
O537        C538   1.267       .  A
C538       C1297   1.487       .  S
C538        O539   1.263   1_565  A
O539       Cr553   1.988       .  S
O540       Cr553   2.020       .  S
O540        C541   1.268       .  A
C541       C1057   1.489       .  S
O542       Cr551   2.017       .  S
O542        C550   1.268       .  A
O543       Cr551   1.976       .  S
O543        C544   1.259   1_545  A
C544        C865   1.489       .  S
C544        O545   1.268       .  A
O545       Cr552   2.018       .  S
O546       Cr552   1.983   1_545  S
O546        C547   1.262       .  A
C547       C2857   1.480       .  S
C547        O548   1.266       .  A
O548       Cr553   2.004       .  S
O549       Cr553   1.979       .  S
O549        C550   1.260       .  A
C550        C828   1.490       .  S
Cr551       O554   1.779       .  S
Cr552       O554   1.775   1_565  S
Cr553       O554   1.776       .  S
O555       Cr573   1.974       .  S
O555        C563   1.260       .  A
O556       Cr573   2.013       .  S
O556        C557   1.267       .  A
C557       C1164   1.489       .  S
C557        O558   1.262       .  A
O558       Cr574   1.986   1_455  S
O559       Cr574   2.011       .  S
O559        C560   1.268       .  A
C560       C2148   1.480       .  S
C560        O561   1.263       .  A
O561       Cr575   1.988       .  S
O562       Cr575   2.021       .  S
O562        C563   1.269   1_655  A
C563       C1212   1.487       .  S
O564       Cr573   2.013       .  S
O564        C572   1.266   1_455  A
O565       Cr573   1.974       .  S
O565        C566   1.260       .  A
C566        C961   1.488       .  S
C566        O567   1.270       .  A
O567       Cr574   2.022   1_455  S
O568       Cr574   1.985       .  S
O568        C569   1.263       .  A
C569       C1764   1.484       .  S
C569        O570   1.267       .  A
O570       Cr575   2.006       .  S
O571       Cr575   1.982       .  S
O571        C572   1.260       .  A
C572        C924   1.482       .  S
Cr573       O576   1.773   1_455  S
Cr574       O576   1.771       .  S
Cr575       O576   1.769       .  S
N577        C581   1.361       .  A
N577        C578   1.364       .  A
N577        C780   1.447       .  S
C578        C579   1.382       .  A
C578        C756   1.477       .  S
C579        C580   1.369       .  A
C579        H582   1.082       .  S
C580        C581   1.379       .  A
C580        H583   1.082       .  S
C581       C1404   1.477       .  S
N584        C588   1.358       .  A
N584        C585   1.363       .  A
N584        C697   1.441       .  S
C585        C586   1.387       .  A
C585        C721   1.485       .  S
C586        C587   1.369       .  A
C586        H589   1.082       .  S
C587        C588   1.377       .  A
C587        H590   1.082       .  S
C588       C1476   1.472       .  S
O591       Cr609   2.017       .  S
O591        C599   1.267       .  A
O592       Cr609   1.968       .  S
O592        C593   1.258       .  A
C593        C985   1.491       .  S
C593        O594   1.270       .  A
O594       Cr610   2.029       .  S
O595       Cr610   1.982       .  S
O595        C596   1.261       .  A
C596       C1356   1.481       .  S
C596        O597   1.266       .  A
O597       Cr611   2.005       .  S
O598       Cr611   1.973       .  S
O598        C599   1.258       .  A
C599       C1033   1.486       .  S
O600       Cr609   1.972       .  S
O600        C608   1.259       .  A
O601       Cr609   2.017       .  S
O601        C602   1.267       .  A
C602        C745   1.490       .  S
C602        O603   1.260       .  A
O603       Cr610   1.977       .  S
O604       Cr610   2.016       .  S
O604        C605   1.269       .  A
C605       C3097   1.485       .  S
C605        O606   1.263       .  A
O606       Cr611   1.980       .  S
O607       Cr611   2.026       .  S
O607        C608   1.270       .  A
C608        C708   1.490       .  S
Cr609       O612   1.779       .  S
Cr610       O612   1.776       .  S
Cr611       O612   1.775       .  S
N613        C617   1.359       .  A
N613        C614   1.360       .  A
N613        C673   1.442       .  S
C614        C615   1.381       .  A
C614       C1092   1.474       .  S
C615        C616   1.371       .  A
C615        H618   1.082       .  S
C616        C617   1.380       .  A
C616        H619   1.082       .  S
C617       C2100   1.473       .  S
N620        C624   1.361   1_545  A
N620        C621   1.361       .  A
N620       C1116   1.444       .  S
C621        C622   1.381       .  A
C621        C649   1.477       .  S
C622        C623   1.370       .  A
C622        H625   1.082       .  S
C623        C624   1.381   1_545  A
C623        H626   1.082   1_545  S
C624       C3012   1.480       .  S
O627       Cr645   1.962       .  S
O627        C635   1.254       .  A
O628       Cr645   2.019       .  S
O628        C629   1.269       .  A
C629        C732   1.478       .  S
C629        O630   1.259       .  A
O630       Cr646   1.968       .  S
O631       Cr646   2.018       .  S
O631        C632   1.271       .  A
C632       C3169   1.481       .  S
C632        O633   1.262       .  A
O633       Cr647   1.975       .  S
O634       Cr647   2.032       .  S
O634        C635   1.268       .  A
C635        C769   1.491       .  S
O636       Cr645   2.029       .  S
O636        C644   1.272       .  A
O637       Cr645   1.962       .  S
O637        C638   1.256       .  A
C638        C684   1.487       .  S
C638        O639   1.267       .  A
O639       Cr646   2.022       .  S
O640       Cr646   1.985       .  S
O640        C641   1.260       .  A
C641       C1596   1.478       .  S
C641        O642   1.267       .  A
O642       Cr647   2.017       .  S
O643       Cr647   1.967       .  S
O643        C644   1.261       .  A
C644        C660   1.492       .  S
Cr645       O648   1.774       .  S
Cr646       O648   1.777       .  S
Cr647       O648   1.779       .  S
C649        C650   1.405       .  A
C649        C654   1.403       .  A
C650        C651   1.404       .  A
C650        H663   1.083       .  S
C651        C652   1.405       .  A
C651        H664   1.083       .  S
C652        C653   1.408       .  A
C652        C655   1.494       .  S
C653        C654   1.400       .  A
C653        H665   1.083       .  S
C654        H666   1.083       .  S
C655        C656   1.351       .  D
C655        H667   1.084       .  S
C656        C657   1.496       .  S
C656        H668   1.087       .  S
C657        C658   1.404       .  A
C657        C662   1.411       .  A
C658        C659   1.395       .  A
C658        H669   1.084       .  S
C659        C660   1.406       .  A
C659        H670   1.083       .  S
C660        C661   1.409       .  A
C661        C662   1.410       .  A
C661        H671   1.083       .  S
C662        H672   1.081       .  S
C673        C674   1.403       .  A
C673        C678   1.402       .  A
C674        C675   1.400       .  A
C674        H687   1.081       .  S
C675        C676   1.405       .  A
C675        H688   1.083       .  S
C676        C677   1.412       .  A
C676        C679   1.497       .  S
C677        C678   1.400       .  A
C677        H689   1.079       .  S
C678        H690   1.082       .  S
C679        C680   1.349       .  D
C679        H691   1.084       .  S
C680        C681   1.493       .  S
C680        H692   1.083       .  S
C681        C682   1.402       .  A
C681        C686   1.412       .  A
C682        C683   1.394       .  A
C682        H693   1.084       .  S
C683        C684   1.406       .  A
C683        H694   1.083       .  S
C684        C685   1.406       .  A
C685        C686   1.406       .  A
C685        H695   1.083       .  S
C686        H696   1.080       .  S
C697        C698   1.403       .  A
C697        C702   1.403       .  A
C698        C699   1.400       .  A
C698        H711   1.083       .  S
C699        C700   1.405       .  A
C699        H712   1.083       .  S
C700        C701   1.409       .  A
C700        C703   1.492       .  S
C701        C702   1.404       .  A
C701        H713   1.082       .  S
C702        H714   1.082       .  S
C703        C704   1.351       .  D
C703        H715   1.085       .  S
C704        C705   1.495       .  S
C704        H716   1.086       .  S
C705        C706   1.407       .  A
C705        C710   1.407       .  A
C706        C707   1.403       .  A
C706        H717   1.083       .  S
C707        C708   1.406       .  A
C707        H718   1.083       .  S
C708        C709   1.408       .  A
C709        C710   1.401       .  A
C709        H719   1.083       .  S
C710        H720   1.082       .  S
C721        C722   1.405       .  A
C721        C726   1.406       .  A
C722        C723   1.407       .  A
C722        H735   1.083       .  S
C723        C724   1.407       .  A
C723        H736   1.083       .  S
C724        C725   1.403       .  A
C724        C727   1.490       .  S
C725        C726   1.395       .  A
C725        H737   1.083       .  S
C726        H738   1.083       .  S
C727        C728   1.350       .  D
C727        H739   1.086       .  S
C728        C729   1.487       .  S
C728        H740   1.087       .  S
C729        C730   1.404       .  A
C729        C734   1.407       .  A
C730        C731   1.398       .  A
C730        H741   1.083       .  S
C731        C732   1.403       .  A
C731        H742   1.083       .  S
C732        C733   1.406       .  A
C733        C734   1.405       .  A
C733        H743   1.083       .  S
C734        H744   1.082       .  S
C745        C746   1.408       .  A
C745        C750   1.406       .  A
C746        C747   1.406       .  A
C746        H759   1.083       .  S
C747        C748   1.410       .  A
C747        H760   1.080       .  S
C748        C749   1.405       .  A
C748        C751   1.497       .  S
C749        C750   1.398       .  A
C749        H761   1.083       .  S
C750        H762   1.083       .  S
C751        C752   1.353       .  D
C751        H763   1.085       .  S
C752        C753   1.496       .  S
C752        H764   1.084       .  S
C753        C754   1.406       .  A
C753        C758   1.409       .  A
C754        C755   1.403       .  A
C754        H765   1.083       .  S
C755        C756   1.404       .  A
C755        H766   1.083       .  S
C756        C757   1.403       .  A
C757        C758   1.401       .  A
C757        H767   1.083       .  S
C758        H768   1.082       .  S
C769        C770   1.408       .  A
C769        C774   1.406       .  A
C770        C771   1.396       .  A
C770        H783   1.083       .  S
C771        C772   1.402       .  A
C771        H784   1.084       .  S
C772        C773   1.413       .  A
C772        C775   1.497       .  S
C773        C774   1.408       .  A
C773        H785   1.080       .  S
C774        H786   1.083       .  S
C775        C776   1.348       .  D
C775        H787   1.085       .  S
C776        C777   1.497       .  S
C776        H788   1.084       .  S
C777        C778   1.402       .  A
C777        C782   1.414       .  A
C778        C779   1.397       .  A
C778        H789   1.084       .  S
C779        C780   1.406       .  A
C779        H790   1.082       .  S
C780        C781   1.404       .  A
C781        C782   1.407       .  A
C781        H791   1.081       .  S
C782        H792   1.081       .  S
C793        C794   1.406       .  A
C793        C798   1.407       .  A
C794        C795   1.398       .  A
C794        H807   1.083       .  S
C795        C796   1.403       .  A
C795        H808   1.084       .  S
C796        C797   1.409       .  A
C796        C799   1.491       .  S
C797        C798   1.404       .  A
C797        H809   1.082       .  S
C798        H810   1.083       .  S
C799        C800   1.350       .  D
C799        H811   1.084       .  S
C800        C801   1.496       .  S
C800        H812   1.086       .  S
C801        C802   1.406       .  A
C801        C806   1.411       .  A
C802        C803   1.400       .  A
C802        H813   1.083       .  S
C803        C804   1.404       .  A
C803        H814   1.083       .  S
C804        C805   1.403       .  A
C805        C806   1.400       .  A
C805        H815   1.080       .  S
C806        H816   1.080       .  S
C817        C818   1.403       .  A
C817        C822   1.405       .  A
C818        C819   1.405       .  A
C818        H831   1.083       .  S
C819        C820   1.408       .  A
C819        H832   1.083       .  S
C820        C821   1.408       .  A
C820        C823   1.496       .  S
C821        C822   1.398       .  A
C821        H833   1.081       .  S
C822        H834   1.083       .  S
C823        C824   1.352       .  D
C823        H835   1.085       .  S
C824        C825   1.494       .  S
C824        H836   1.084       .  S
C825        C826   1.406       .  A
C825        C830   1.408       .  A
C826        C827   1.401       .  A
C826        H837   1.083       .  S
C827        C828   1.406       .  A
C827        H838   1.083       .  S
C828        C829   1.408       .  A
C829        C830   1.402       .  A
C829        H839   1.083       .  S
C830        H840   1.081       .  S
C841        C842   1.407       .  A
C841        C846   1.406       .  A
C842        C843   1.400       .  A
C842        H855   1.083       .  S
C843        C844   1.402       .  A
C843        H856   1.083       .  S
C844        C845   1.408       .  A
C844        C847   1.488       .  S
C845        C846   1.402       .  A
C845        H857   1.083       .  S
C846        H858   1.083       .  S
C847        C848   1.348       .  D
C847        H859   1.085       .  S
C848        C849   1.492       .  S
C848        H860   1.087       .  S
C849        C850   1.407       .  A
C849        C854   1.408       .  A
C850        C851   1.402       .  A
C850        H861   1.083       .  S
C851        C852   1.402       .  A
C851        H862   1.083       .  S
C852        C853   1.404       .  A
C853        C854   1.399       .  A
C853        H863   1.084       .  S
C854        H864   1.081       .  S
C865        C866   1.406       .  A
C865        C870   1.408   1_565  A
C866        C867   1.402       .  A
C866        H879   1.083       .  S
C867        C868   1.405   1_565  A
C867        H880   1.083       .  S
C868        C869   1.407       .  A
C868        C871   1.492       .  S
C869        C870   1.401       .  A
C869        H881   1.082       .  S
C870        H882   1.083       .  S
C871        C872   1.350       .  D
C871        H883   1.086       .  S
C872        C873   1.491       .  S
C872        H884   1.085       .  S
C873        C874   1.405       .  A
C873        C878   1.408       .  A
C874        C875   1.402       .  A
C874        H885   1.083   1_545  S
C875        C876   1.403       .  A
C875        H886   1.082   1_545  S
C876        C877   1.404       .  A
C877        C878   1.401       .  A
C877        H887   1.082       .  S
C878        H888   1.082       .  S
C889        C890   1.404       .  A
C889        C894   1.404       .  A
C890        C891   1.401       .  A
C890        H903   1.082       .  S
C891        C892   1.406       .  A
C891        H904   1.083       .  S
C892        C893   1.410       .  A
C892        C895   1.495   1_556  S
C893        C894   1.402       .  A
C893        H905   1.081       .  S
C894        H906   1.083       .  S
C895        C896   1.352       .  D
C895        H907   1.083       .  S
C896        C897   1.498       .  S
C896        H908   1.085   1_554  S
C897        C898   1.407       .  A
C897        C902   1.410       .  A
C898        C899   1.401       .  A
C898        H909   1.083       .  S
C899        C900   1.405       .  A
C899        H910   1.083       .  S
C900        C901   1.407       .  A
C901        C902   1.402       .  A
C901        H911   1.083       .  S
C902        H912   1.080       .  S
C913        C914   1.402       .  A
C913        C918   1.404       .  A
C914        C915   1.403       .  A
C914        H927   1.083       .  S
C915        C916   1.408       .  A
C915        H928   1.083       .  S
C916        C917   1.408       .  A
C916        C919   1.495       .  S
C917        C918   1.398       .  A
C917        H929   1.081       .  S
C918        H930   1.084       .  S
C919        C920   1.352       .  D
C919        H931   1.085       .  S
C920        C921   1.491       .  S
C920        H932   1.083       .  S
C921        C922   1.406       .  A
C921        C926   1.408       .  A
C922        C923   1.401       .  A
C922        H933   1.083       .  S
C923        C924   1.404       .  A
C923        H934   1.083   1_655  S
C924        C925   1.406       .  A
C925        C926   1.401       .  A
C925        H935   1.083       .  S
C926        H936   1.081       .  S
C937        C938   1.402       .  A
C937        C942   1.403       .  A
C938        C939   1.402       .  A
C938        H951   1.083       .  S
C939        C940   1.405       .  A
C939        H952   1.084   1_455  S
C940        C941   1.407       .  A
C940        C943   1.489       .  S
C941        C942   1.399       .  A
C941        H953   1.082       .  S
C942        H954   1.084       .  S
C943        C944   1.350       .  D
C943        H955   1.085       .  S
C944        C945   1.492       .  S
C944        H956   1.087       .  S
C945        C946   1.405       .  A
C945        C950   1.408       .  A
C946        C947   1.399       .  A
C946        H957   1.084       .  S
C947        C948   1.405       .  A
C947        H958   1.083       .  S
C948        C949   1.408   1_455  A
C949        C950   1.402   1_655  A
C949        H959   1.083       .  S
C950        H960   1.081   1_455  S
C961        C962   1.404       .  A
C961        C966   1.408       .  A
C962        C963   1.401       .  A
C962        H975   1.083       .  S
C963        C964   1.407       .  A
C963        H976   1.084       .  S
C964        C965   1.409       .  A
C964        C967   1.497       .  S
C965        C966   1.401       .  A
C965        H977   1.079       .  S
C966        H978   1.083       .  S
C967        C968   1.354       .  D
C967        H979   1.083       .  S
C968        C969   1.498       .  S
C968        H980   1.083       .  S
C969        C970   1.409   1_556  A
C969        C974   1.408   1_556  A
C970        C971   1.405       .  A
C970        H981   1.083   1_554  S
C971        C972   1.404       .  A
C971        H982   1.081       .  S
C972        C973   1.405       .  A
C973        C974   1.396       .  A
C973        H983   1.082       .  S
C974        H984   1.080       .  S
C985        C986   1.408       .  A
C985        C990   1.407       .  A
C986        C987   1.397       .  A
C986        H999   1.083       .  S
C987        C988   1.402       .  A
C987       H1000   1.084       .  S
C988        C989   1.412       .  A
C988        C991   1.495       .  S
C989        C990   1.407       .  A
C989       H1001   1.081       .  S
C990       H1002   1.083       .  S
C991        C992   1.349       .  D
C991       H1003   1.085       .  S
C992        C993   1.496       .  S
C992       H1004   1.085       .  S
C993        C994   1.404       .  A
C993        C998   1.413       .  A
C994        C995   1.398       .  A
C994       H1005   1.084       .  S
C995        C996   1.403       .  A
C995       H1006   1.083       .  S
C996        C997   1.402       .  A
C997        C998   1.405       .  A
C997       H1007   1.082       .  S
C998       H1008   1.080       .  S
C1009      C1010   1.403       .  A
C1009      C1014   1.403       .  A
C1010      C1011   1.401       .  A
C1010      H1023   1.083       .  S
C1011      C1012   1.405       .  A
C1011      H1024   1.083       .  S
C1012      C1013   1.409       .  A
C1012      C1015   1.493       .  S
C1013      C1014   1.402       .  A
C1013      H1025   1.082       .  S
C1014      H1026   1.083       .  S
C1015      C1016   1.351       .  D
C1015      H1027   1.083       .  S
C1016      C1017   1.497       .  S
C1016      H1028   1.086       .  S
C1017      C1018   1.405       .  A
C1017      C1022   1.411       .  A
C1018      C1019   1.397       .  A
C1018      H1029   1.083       .  S
C1019      C1020   1.405       .  A
C1019      H1030   1.083       .  S
C1020      C1021   1.407       .  A
C1021      C1022   1.406       .  A
C1021      H1031   1.083       .  S
C1022      H1032   1.080       .  S
C1033      C1034   1.405       .  A
C1033      C1038   1.407       .  A
C1034      C1035   1.402       .  A
C1034      H1047   1.083       .  S
C1035      C1036   1.406       .  A
C1035      H1048   1.083       .  S
C1036      C1037   1.407       .  A
C1036      C1039   1.492       .  S
C1037      C1038   1.398       .  A
C1037      H1049   1.081       .  S
C1038      H1050   1.083       .  S
C1039      C1040   1.351       .  D
C1039      H1051   1.084       .  S
C1040      C1041   1.494       .  S
C1040      H1052   1.085       .  S
C1041      C1042   1.408       .  A
C1041      C1046   1.409       .  A
C1042      C1043   1.403       .  A
C1042      H1053   1.083       .  S
C1043      C1044   1.402       .  A
C1043      H1054   1.083       .  S
C1044      C1045   1.404       .  A
C1045      C1046   1.397       .  A
C1045      H1055   1.084       .  S
C1046      H1056   1.080       .  S
C1057      C1058   1.407       .  A
C1057      C1062   1.407       .  A
C1058      C1059   1.404       .  A
C1058      H1071   1.083       .  S
C1059      C1060   1.406       .  A
C1059      H1072   1.083       .  S
C1060      C1061   1.408       .  A
C1060      C1063   1.495       .  S
C1061      C1062   1.400       .  A
C1061      H1073   1.082   1_545  S
C1062      H1074   1.083   1_545  S
C1063      C1064   1.351       .  D
C1063      H1075   1.086       .  S
C1064      C1065   1.492       .  S
C1064      H1076   1.085       .  S
C1065      C1066   1.405       .  A
C1065      C1070   1.409       .  A
C1066      C1067   1.399       .  A
C1066      H1077   1.083       .  S
C1067      C1068   1.402       .  A
C1067      H1078   1.083       .  S
C1068      C1069   1.405       .  A
C1069      C1070   1.404       .  A
C1069      H1079   1.082   1_545  S
C1070      H1080   1.082       .  S
C1081      C1082   1.408       .  A
C1081      C1086   1.406       .  A
C1082      C1083   1.405       .  A
C1082      H1095   1.083       .  S
C1083      C1084   1.405       .  A
C1083      H1096   1.083       .  S
C1084      C1085   1.405       .  A
C1084      C1087   1.489       .  S
C1085      C1086   1.395       .  A
C1085      H1097   1.082       .  S
C1086      H1098   1.083       .  S
C1087      C1088   1.351       .  D
C1087      H1099   1.084       .  S
C1088      C1089   1.492       .  S
C1088      H1100   1.087       .  S
C1089      C1090   1.406       .  A
C1089      C1094   1.410       .  A
C1090      C1091   1.397       .  A
C1090      H1101   1.084       .  S
C1091      C1092   1.400       .  A
C1091      H1102   1.083       .  S
C1092      C1093   1.404       .  A
C1093      C1094   1.404       .  A
C1093      H1103   1.083       .  S
C1094      H1104   1.080       .  S
C1105      C1106   1.406   1_565  A
C1105      C1110   1.408       .  A
C1106      C1107   1.394       .  A
C1106      H1119   1.083       .  S
C1107      C1108   1.401       .  A
C1107      H1120   1.083       .  S
C1108      C1109   1.410   1_545  A
C1108      C1111   1.488       .  S
C1109      C1110   1.408       .  A
C1109      H1121   1.082       .  S
C1110      H1122   1.083       .  S
C1111      C1112   1.349       .  D
C1111      H1123   1.085       .  S
C1112      C1113   1.494       .  S
C1112      H1124   1.085       .  S
C1113      C1114   1.407       .  A
C1113      C1118   1.408       .  A
C1114      C1115   1.405       .  A
C1114      H1125   1.083       .  S
C1115      C1116   1.403       .  A
C1115      H1126   1.082       .  S
C1116      C1117   1.404       .  A
C1117      C1118   1.397       .  A
C1117      H1127   1.082   1_545  S
C1118      H1128   1.082   1_545  S
C1129      C1130   1.404       .  A
C1129      C1134   1.406       .  A
C1130      C1131   1.400       .  A
C1130      H1143   1.083       .  S
C1131      C1132   1.407       .  A
C1131      H1144   1.084       .  S
C1132      C1133   1.410       .  A
C1132      C1135   1.497       .  S
C1133      C1134   1.400       .  A
C1133      H1145   1.079   1_545  S
C1134      H1146   1.083   1_545  S
C1135      C1136   1.352       .  D
C1135      H1147   1.085       .  S
C1136      C1137   1.494       .  S
C1136      H1148   1.083   1_545  S
C1137      C1138   1.406       .  A
C1137      C1142   1.409       .  A
C1138      C1139   1.401       .  A
C1138      H1149   1.084   1_545  S
C1139      C1140   1.402       .  A
C1139      H1150   1.079   1_545  S
C1140      C1141   1.405       .  A
C1141      C1142   1.399       .  A
C1141      H1151   1.083       .  S
C1142      H1152   1.080       .  S
C1153      C1154   1.402       .  A
C1153      C1158   1.403       .  A
C1154      C1155   1.399       .  A
C1154      H1167   1.083       .  S
C1155      C1156   1.405       .  A
C1155      H1168   1.083       .  S
C1156      C1157   1.410       .  A
C1156      C1159   1.494       .  S
C1157      C1158   1.402       .  A
C1157      H1169   1.081       .  S
C1158      H1170   1.083       .  S
C1159      C1160   1.351       .  D
C1159      H1171   1.085       .  S
C1160      C1161   1.492       .  S
C1160      H1172   1.084       .  S
C1161      C1162   1.404       .  A
C1161      C1166   1.408       .  A
C1162      C1163   1.401       .  A
C1162      H1173   1.083       .  S
C1163      C1164   1.407       .  A
C1163      H1174   1.083       .  S
C1164      C1165   1.407       .  A
C1165      C1166   1.402       .  A
C1165      H1175   1.083       .  S
C1166      H1176   1.082       .  S
C1177      C1178   1.403       .  A
C1177      C1182   1.402       .  A
C1178      C1179   1.399       .  A
C1178      H1191   1.083       .  S
C1179      C1180   1.402       .  A
C1179      H1192   1.083       .  S
C1180      C1181   1.408       .  A
C1180      C1183   1.487       .  S
C1181      C1182   1.401       .  A
C1181      H1193   1.083       .  S
C1182      H1194   1.083       .  S
C1183      C1184   1.349       .  D
C1183      H1195   1.084       .  S
C1184      C1185   1.492       .  S
C1184      H1196   1.087       .  S
C1185      C1186   1.405       .  A
C1185      C1190   1.409       .  A
C1186      C1187   1.396       .  A
C1186      H1197   1.083       .  S
C1187      C1188   1.405       .  A
C1187      H1198   1.083       .  S
C1188      C1189   1.407       .  A
C1189      C1190   1.403       .  A
C1189      H1199   1.083       .  S
C1190      H1200   1.080       .  S
C1201      C1202   1.402       .  A
C1201      C1206   1.403       .  A
C1202      C1203   1.399       .  A
C1202      H1215   1.083       .  S
C1203      C1204   1.404       .  A
C1203      H1216   1.083       .  S
C1204      C1205   1.408       .  A
C1204      C1207   1.487       .  S
C1205      C1206   1.402       .  A
C1205      H1217   1.083       .  S
C1206      H1218   1.082       .  S
C1207      C1208   1.348       .  D
C1207      H1219   1.086       .  S
C1208      C1209   1.490       .  S
C1208      H1220   1.086       .  S
C1209      C1210   1.405   1_455  A
C1209      C1214   1.406       .  A
C1210      C1211   1.402       .  A
C1210      H1221   1.083       .  S
C1211      C1212   1.407   1_655  A
C1211      H1222   1.083       .  S
C1212      C1213   1.407       .  A
C1213      C1214   1.399       .  A
C1213      H1223   1.083       .  S
C1214      H1224   1.082       .  S
C1225      C1226   1.404       .  A
C1225      C1230   1.406       .  A
C1226      C1227   1.395       .  A
C1226      H1239   1.083       .  S
C1227      C1228   1.403       .  A
C1227      H1240   1.084       .  S
C1228      C1229   1.409       .  A
C1228      C1231   1.488       .  S
C1229      C1230   1.405       .  A
C1229      H1241   1.082       .  S
C1230      H1242   1.083       .  S
C1231      C1232   1.349       .  D
C1231      H1243   1.086       .  S
C1232      C1233   1.491       .  S
C1232      H1244   1.086       .  S
C1233      C1234   1.405       .  A
C1233      C1238   1.408       .  A
C1234      C1235   1.401       .  A
C1234      H1245   1.083       .  S
C1235      C1236   1.402       .  A
C1235      H1246   1.083       .  S
C1236      C1237   1.402       .  A
C1237      C1238   1.399       .  A
C1237      H1247   1.083       .  S
C1238      H1248   1.082       .  S
C1249      C1250   1.405       .  A
C1249      C1254   1.402       .  A
C1250      C1251   1.402       .  A
C1250      H1263   1.083       .  S
C1251      C1252   1.405       .  A
C1251      H1264   1.083       .  S
C1252      C1253   1.410       .  A
C1252      C1255   1.495       .  S
C1253      C1254   1.400       .  A
C1253      H1265   1.082       .  S
C1254      H1266   1.083       .  S
C1255      C1256   1.351       .  D
C1255      H1267   1.084       .  S
C1256      C1257   1.494       .  S
C1256      H1268   1.085       .  S
C1257      C1258   1.403       .  A
C1257      C1262   1.411       .  A
C1258      C1259   1.394       .  A
C1258      H1269   1.084       .  S
C1259      C1260   1.405       .  A
C1259      H1270   1.083       .  S
C1260      C1261   1.408       .  A
C1261      C1262   1.408       .  A
C1261      H1271   1.083       .  S
C1262      H1272   1.081       .  S
C1273      C1274   1.406   1_655  A
C1273      C1278   1.408       .  A
C1274      C1275   1.402       .  A
C1274      H1287   1.083       .  S
C1275      C1276   1.405   1_455  A
C1275      H1288   1.083       .  S
C1276      C1277   1.407       .  A
C1276      C1279   1.493   1_655  S
C1277      C1278   1.402       .  A
C1277      H1289   1.082       .  S
C1278      H1290   1.083       .  S
C1279      C1280   1.348   1_455  D
C1279      H1291   1.087       .  S
C1280      C1281   1.489       .  S
C1280      H1292   1.086       .  S
C1281      C1282   1.400       .  A
C1281      C1286   1.406       .  A
C1282      C1283   1.398       .  A
C1282      H1293   1.084       .  S
C1283      C1284   1.410       .  A
C1283      H1294   1.081       .  S
C1284      C1285   1.410   1_655  A
C1285      C1286   1.405   1_455  A
C1285      H1295   1.077       .  S
C1286      H1296   1.083   1_655  S
C1297      C1298   1.409       .  A
C1297      C1302   1.406       .  A
C1298      C1299   1.406       .  A
C1298      H1311   1.083   1_565  S
C1299      C1300   1.404       .  A
C1299      H1312   1.083       .  S
C1300      C1301   1.404       .  A
C1300      C1303   1.487       .  S
C1301      C1302   1.394       .  A
C1301      H1313   1.083       .  S
C1302      H1314   1.083       .  S
C1303      C1304   1.347       .  D
C1303      H1315   1.085       .  S
C1304      C1305   1.487       .  S
C1304      H1316   1.087       .  S
C1305      C1306   1.403       .  A
C1305      C1310   1.409       .  A
C1306      C1307   1.394       .  A
C1306      H1317   1.083       .  S
C1307      C1308   1.402       .  A
C1307      H1318   1.084       .  S
C1308      C1309   1.405       .  A
C1309      C1310   1.406       .  A
C1309      H1319   1.083       .  S
C1310      H1320   1.082       .  S
C1321      C1322   1.404       .  A
C1321      C1326   1.407       .  A
C1322      C1323   1.392       .  A
C1322      H1335   1.083       .  S
C1323      C1324   1.403       .  A
C1323      H1336   1.084       .  S
C1324      C1325   1.411       .  A
C1324      C1327   1.491       .  S
C1325      C1326   1.407       .  A
C1325      H1337   1.080       .  S
C1326      H1338   1.083       .  S
C1327      C1328   1.349       .  D
C1327      H1339   1.086       .  S
C1328      C1329   1.490       .  S
C1328      H1340   1.084       .  S
C1329      C1330   1.404       .  A
C1329      C1334   1.409       .  A
C1330      C1331   1.402       .  A
C1330      H1341   1.083       .  S
C1331      C1332   1.403       .  A
C1331      H1342   1.083       .  S
C1332      C1333   1.401       .  A
C1333      C1334   1.397       .  A
C1333      H1343   1.084       .  S
C1334      H1344   1.083       .  S
C1345      C1346   1.401       .  A
C1345      C1350   1.401       .  A
C1346      C1347   1.396       .  A
C1346      H1359   1.083       .  S
C1347      C1348   1.408       .  A
C1347      H1360   1.082       .  S
C1348      C1349   1.406       .  A
C1348      C1351   1.489       .  S
C1349      C1350   1.401       .  A
C1349      H1361   1.083       .  S
C1350      H1362   1.084       .  S
C1351      C1352   1.350       .  D
C1351      H1363   1.085       .  S
C1352      C1353   1.487       .  S
C1352      H1364   1.085       .  S
C1353      C1354   1.404       .  A
C1353      C1358   1.408       .  A
C1354      C1355   1.396       .  A
C1354      H1365   1.083       .  S
C1355      C1356   1.404       .  A
C1355      H1366   1.083       .  S
C1356      C1357   1.407       .  A
C1357      C1358   1.403       .  A
C1357      H1367   1.083       .  S
C1358      H1368   1.082       .  S
C1369      C1370   1.405       .  A
C1369      C1374   1.406       .  A
C1370      C1371   1.403       .  A
C1370      H1383   1.083       .  S
C1371      C1372   1.405       .  A
C1371      H1384   1.083       .  S
C1372      C1373   1.407       .  A
C1372      C1375   1.489       .  S
C1373      C1374   1.400       .  A
C1373      H1385   1.083   1_655  S
C1374      H1386   1.083   1_655  S
C1375      C1376   1.348       .  D
C1375      H1387   1.086       .  S
C1376      C1377   1.488       .  S
C1376      H1388   1.086   1_655  S
C1377      C1378   1.404       .  A
C1377      C1382   1.406       .  A
C1378      C1379   1.400       .  A
C1378      H1389   1.083   1_655  S
C1379      C1380   1.405       .  A
C1379      H1390   1.082   1_655  S
C1380      C1381   1.407       .  A
C1381      C1382   1.401       .  A
C1381      H1391   1.082       .  S
C1382      H1392   1.082       .  S
C1393      C1394   1.407       .  A
C1393      C1398   1.406       .  A
C1394      C1395   1.398       .  A
C1394      H1407   1.083       .  S
C1395      C1396   1.402       .  A
C1395      H1408   1.084       .  S
C1396      C1397   1.408       .  A
C1396      C1399   1.486       .  S
C1397      C1398   1.403       .  A
C1397      H1409   1.082       .  S
C1398      H1410   1.083       .  S
C1399      C1400   1.346       .  D
C1399      H1411   1.087       .  S
C1400      C1401   1.488       .  S
C1400      H1412   1.086       .  S
C1401      C1402   1.406       .  A
C1401      C1406   1.407       .  A
C1402      C1403   1.403       .  A
C1402      H1413   1.083       .  S
C1403      C1404   1.403       .  A
C1403      H1414   1.083       .  S
C1404      C1405   1.401       .  A
C1405      C1406   1.397       .  A
C1405      H1415   1.083       .  S
C1406      H1416   1.082       .  S
C1417      C1418   1.406       .  A
C1417      C1422   1.407       .  A
C1418      C1419   1.395       .  A
C1418      H1431   1.083       .  S
C1419      C1420   1.403       .  A
C1419      H1432   1.084       .  S
C1420      C1421   1.411       .  A
C1420      C1423   1.493       .  S
C1421      C1422   1.407       .  A
C1421      H1433   1.081       .  S
C1422      H1434   1.083       .  S
C1423      C1424   1.349       .  D
C1423      H1435   1.086       .  S
C1424      C1425   1.491       .  S
C1424      H1436   1.084       .  S
C1425      C1426   1.403       .  A
C1425      C1430   1.411       .  A
C1426      C1427   1.398       .  A
C1426      H1437   1.083       .  S
C1427      C1428   1.403       .  A
C1427      H1438   1.083       .  S
C1428      C1429   1.402       .  A
C1429      C1430   1.403       .  A
C1429      H1439   1.083       .  S
C1430      H1440   1.082       .  S
C1441      C1442   1.408       .  A
C1441      C1446   1.406   1_565  A
C1442      C1443   1.398       .  A
C1442      H1455   1.083       .  S
C1443      C1444   1.403       .  A
C1443      H1456   1.084       .  S
C1444      C1445   1.412       .  A
C1444      C1447   1.497       .  S
C1445      C1446   1.407   1_565  A
C1445      H1457   1.081   1_565  S
C1446      H1458   1.083       .  S
C1447      C1448   1.351       .  D
C1447      H1459   1.083       .  S
C1448      C1449   1.499       .  S
C1448      H1460   1.084       .  S
C1449      C1450   1.405       .  A
C1449      C1454   1.413       .  A
C1450      C1451   1.399       .  A
C1450      H1461   1.083       .  S
C1451      C1452   1.403       .  A
C1451      H1462   1.083       .  S
C1452      C1453   1.404       .  A
C1453      C1454   1.404       .  A
C1453      H1463   1.082       .  S
C1454      H1464   1.080       .  S
C1465      C1466   1.403       .  A
C1465      C1470   1.406       .  A
C1466      C1467   1.394       .  A
C1466      H1479   1.084       .  S
C1467      C1468   1.403       .  A
C1467      H1480   1.083       .  S
C1468      C1469   1.410       .  A
C1468      C1471   1.489       .  S
C1469      C1470   1.405       .  A
C1469      H1481   1.082       .  S
C1470      H1482   1.083       .  S
C1471      C1472   1.349       .  D
C1471      H1483   1.085       .  S
C1472      C1473   1.490       .  S
C1472      H1484   1.084       .  S
C1473      C1474   1.409       .  A
C1473      C1478   1.405       .  A
C1474      C1475   1.398       .  A
C1474      H1485   1.082       .  S
C1475      C1476   1.400       .  A
C1475      H1486   1.083       .  S
C1476      C1477   1.401       .  A
C1477      C1478   1.400       .  A
C1477      H1487   1.084       .  S
C1478      H1488   1.083       .  S
C1489      C1490   1.406       .  A
C1489      C1494   1.408       .  A
C1490      C1491   1.402       .  A
C1490      H1503   1.083       .  S
C1491      C1492   1.406       .  A
C1491      H1504   1.083       .  S
C1492      C1493   1.408       .  A
C1492      C1495   1.495       .  S
C1493      C1494   1.403       .  A
C1493      H1505   1.082       .  S
C1494      H1506   1.083       .  S
C1495      C1496   1.352       .  D
C1495      H1507   1.086       .  S
C1496      C1497   1.495       .  S
C1496      H1508   1.085       .  S
C1497      C1498   1.408       .  A
C1497      C1502   1.408       .  A
C1498      C1499   1.404       .  A
C1498      H1509   1.083       .  S
C1499      C1500   1.401       .  A
C1499      H1510   1.082       .  S
C1500      C1501   1.404       .  A
C1501      C1502   1.401       .  A
C1501      H1511   1.083       .  S
C1502      H1512   1.082       .  S
C1513      C1514   1.403       .  A
C1513      C1518   1.405       .  A
C1514      C1515   1.405       .  A
C1514      H1527   1.083       .  S
C1515      C1516   1.410       .  A
C1515      H1528   1.083       .  S
C1516      C1517   1.410       .  A
C1516      C1519   1.501       .  S
C1517      C1518   1.399       .  A
C1517      H1529   1.079       .  S
C1518      H1530   1.083       .  S
C1519      C1520   1.354       .  D
C1519      H1531   1.085       .  S
C1520      C1521   1.495       .  S
C1520      H1532   1.082       .  S
C1521      C1522   1.406       .  A
C1521      C1526   1.408       .  A
C1522      C1523   1.402       .  A
C1522      H1533   1.083   1_545  S
C1523      C1524   1.405       .  A
C1523      H1534   1.083   1_545  S
C1524      C1525   1.408       .  A
C1525      C1526   1.402       .  A
C1525      H1535   1.083       .  S
C1526      H1536   1.081       .  S
C1537      C1538   1.403       .  A
C1537      C1542   1.409   1_565  A
C1538      C1539   1.395       .  A
C1538      H1551   1.084       .  S
C1539      C1540   1.405       .  A
C1539      H1552   1.082       .  S
C1540      C1541   1.410   1_565  A
C1540      C1543   1.494       .  S
C1541      C1542   1.407       .  A
C1541      H1553   1.081       .  S
C1542      H1554   1.082       .  S
C1543      C1544   1.351       .  D
C1543      H1555   1.085       .  S
C1544      C1545   1.493       .  S
C1544      H1556   1.083   1_565  S
C1545      C1546   1.404       .  A
C1545      C1550   1.409       .  A
C1546      C1547   1.403       .  A
C1546      H1557   1.083   1_565  S
C1547      C1548   1.404       .  A
C1547      H1558   1.083       .  S
C1548      C1549   1.402       .  A
C1549      C1550   1.399       .  A
C1549      H1559   1.083       .  S
C1550      H1560   1.082       .  S
C1561      C1562   1.405       .  A
C1561      C1566   1.404       .  A
C1562      C1563   1.399       .  A
C1562      H1575   1.083       .  S
C1563      C1564   1.405       .  A
C1563      H1576   1.083       .  S
C1564      C1565   1.413       .  A
C1564      C1567   1.499       .  S
C1565      C1566   1.405       .  A
C1565      H1577   1.080       .  S
C1566      H1578   1.081       .  S
C1567      C1568   1.350       .  D
C1567      H1579   1.084       .  S
C1568      C1569   1.498       .  S
C1568      H1580   1.084       .  S
C1569      C1570   1.403       .  A
C1569      C1574   1.413       .  A
C1570      C1571   1.397       .  A
C1570      H1581   1.084       .  S
C1571      C1572   1.408       .  A
C1571      H1582   1.083       .  S
C1572      C1573   1.407       .  A
C1573      C1574   1.408       .  A
C1573      H1583   1.083       .  S
C1574      H1584   1.080       .  S
C1585      C1586   1.402       .  A
C1585      C1590   1.404       .  A
C1586      C1587   1.403       .  A
C1586      H1599   1.083       .  S
C1587      C1588   1.407       .  A
C1587      H1600   1.083       .  S
C1588      C1589   1.407       .  A
C1588      C1591   1.489       .  S
C1589      C1590   1.397       .  A
C1589      H1601   1.082       .  S
C1590      H1602   1.083       .  S
C1591      C1592   1.348       .  D
C1591      H1603   1.086       .  S
C1592      C1593   1.487       .  S
C1592      H1604   1.085       .  S
C1593      C1594   1.405       .  A
C1593      C1598   1.406       .  A
C1594      C1595   1.403       .  A
C1594      H1605   1.083       .  S
C1595      C1596   1.404       .  A
C1595      H1606   1.083       .  S
C1596      C1597   1.404       .  A
C1597      C1598   1.398       .  A
C1597      H1607   1.084       .  S
C1598      H1608   1.083       .  S
C1609      C1610   1.402       .  A
C1609      C1614   1.402       .  A
C1610      C1611   1.404       .  A
C1610      H1623   1.083       .  S
C1611      C1612   1.409       .  A
C1611      H1624   1.083       .  S
C1612      C1613   1.409       .  A
C1612      C1615   1.495       .  S
C1613      C1614   1.396       .  A
C1613      H1625   1.080       .  S
C1614      H1626   1.084       .  S
C1615      C1616   1.351       .  D
C1615      H1627   1.085       .  S
C1616      C1617   1.491       .  S
C1616      H1628   1.084       .  S
C1617      C1618   1.405       .  A
C1617      C1622   1.409       .  A
C1618      C1619   1.400       .  A
C1618      H1629   1.083       .  S
C1619      C1620   1.405       .  A
C1619      H1630   1.083       .  S
C1620      C1621   1.407       .  A
C1621      C1622   1.400       .  A
C1621      H1631   1.083       .  S
C1622      H1632   1.081       .  S
C1633      C1634   1.401       .  A
C1633      C1638   1.402       .  A
C1634      C1635   1.401       .  A
C1634      H1647   1.083       .  S
C1635      C1636   1.407       .  A
C1635      H1648   1.083       .  S
C1636      C1637   1.410       .  A
C1636      C1639   1.494       .  S
C1637      C1638   1.398       .  A
C1637      H1649   1.081       .  S
C1638      H1650   1.084       .  S
C1639      C1640   1.351       .  D
C1639      H1651   1.084       .  S
C1640      C1641   1.491       .  S
C1640      H1652   1.084       .  S
C1641      C1642   1.405       .  A
C1641      C1646   1.410       .  A
C1642      C1643   1.395       .  A
C1642      H1653   1.083       .  S
C1643      C1644   1.402       .  A
C1643      H1654   1.084       .  S
C1644      C1645   1.405       .  A
C1645      C1646   1.404       .  A
C1645      H1655   1.083       .  S
C1646      H1656   1.081       .  S
C1657      C1658   1.406       .  A
C1657      C1662   1.406       .  A
C1658      C1659   1.400       .  A
C1658      H1671   1.082       .  S
C1659      C1660   1.403       .  A
C1659      H1672   1.083       .  S
C1660      C1661   1.406       .  A
C1660      C1663   1.487       .  S
C1661      C1662   1.400       .  A
C1661      H1673   1.083       .  S
C1662      H1674   1.079       .  S
C1663      C1664   1.349       .  D
C1663      H1675   1.086       .  S
C1664      C1665   1.488       .  S
C1664      H1676   1.086       .  S
C1665      C1666   1.405       .  A
C1665      C1670   1.406       .  A
C1666      C1667   1.402       .  A
C1666      H1677   1.083       .  S
C1667      C1668   1.404       .  A
C1667      H1678   1.083       .  S
C1668      C1669   1.406       .  A
C1669      C1670   1.399       .  A
C1669      H1679   1.083       .  S
C1670      H1680   1.082       .  S
C1681      C1682   1.405       .  A
C1681      C1686   1.407       .  A
C1682      C1683   1.396       .  A
C1682      H1695   1.083       .  S
C1683      C1684   1.403       .  A
C1683      H1696   1.083       .  S
C1684      C1685   1.408       .  A
C1684      C1687   1.487       .  S
C1685      C1686   1.403       .  A
C1685      H1697   1.082       .  S
C1686      H1698   1.083       .  S
C1687      C1688   1.349       .  D
C1687      H1699   1.086       .  S
C1688      C1689   1.488       .  S
C1688      H1700   1.086       .  S
C1689      C1690   1.408       .  A
C1689      C1694   1.405       .  A
C1690      C1691   1.400       .  A
C1690      H1701   1.082       .  S
C1691      C1692   1.402       .  A
C1691      H1702   1.083       .  S
C1692      C1693   1.401       .  A
C1693      C1694   1.399       .  A
C1693      H1703   1.083       .  S
C1694      H1704   1.084       .  S
C1705      C1706   1.402       .  A
C1705      C1710   1.403       .  A
C1706      C1707   1.405       .  A
C1706      H1719   1.083       .  S
C1707      C1708   1.410       .  A
C1707      H1720   1.083       .  S
C1708      C1709   1.410       .  A
C1708      C1711   1.500       .  S
C1709      C1710   1.398       .  A
C1709      H1721   1.079       .  S
C1710      H1722   1.084       .  S
C1711      C1712   1.354       .  D
C1711      H1723   1.086       .  S
C1712      C1713   1.493       .  S
C1712      H1724   1.082       .  S
C1713      C1714   1.406       .  A
C1713      C1718   1.407       .  A
C1714      C1715   1.402       .  A
C1714      H1725   1.084       .  S
C1715      C1716   1.405       .  A
C1715      H1726   1.083       .  S
C1716      C1717   1.409       .  A
C1717      C1718   1.402       .  A
C1717      H1727   1.083       .  S
C1718      H1728   1.081       .  S
C1729      C1730   1.403       .  A
C1729      C1734   1.404       .  A
C1730      C1731   1.399       .  A
C1730      H1743   1.082       .  S
C1731      C1732   1.406       .  A
C1731      H1744   1.084       .  S
C1732      C1733   1.412       .  A
C1732      C1735   1.498       .  S
C1733      C1734   1.404       .  A
C1733      H1745   1.079       .  S
C1734      H1746   1.081       .  S
C1735      C1736   1.352       .  D
C1735      H1747   1.083       .  S
C1736      C1737   1.500       .  S
C1736      H1748   1.084       .  S
C1737      C1738   1.406       .  A
C1737      C1742   1.412       .  A
C1738      C1739   1.400       .  A
C1738      H1749   1.084       .  S
C1739      C1740   1.407       .  A
C1739      H1750   1.083       .  S
C1740      C1741   1.406       .  A
C1741      C1742   1.403       .  A
C1741      H1751   1.083       .  S
C1742      H1752   1.079       .  S
C1753      C1754   1.402       .  A
C1753      C1758   1.402       .  A
C1754      C1755   1.399       .  A
C1754      H1767   1.083       .  S
C1755      C1756   1.405       .  A
C1755      H1768   1.083       .  S
C1756      C1757   1.409       .  A
C1756      C1759   1.490       .  S
C1757      C1758   1.400       .  A
C1757      H1769   1.081       .  S
C1758      H1770   1.083       .  S
C1759      C1760   1.348       .  D
C1759      H1771   1.086       .  S
C1760      C1761   1.489       .  S
C1760      H1772   1.085       .  S
C1761      C1762   1.405       .  A
C1761      C1766   1.407       .  A
C1762      C1763   1.402       .  A
C1762      H1773   1.083       .  S
C1763      C1764   1.406       .  A
C1763      H1774   1.083       .  S
C1764      C1765   1.406       .  A
C1765      C1766   1.397       .  A
C1765      H1775   1.083       .  S
C1766      H1776   1.082       .  S
C1777      C1778   1.402       .  A
C1777      C1782   1.404       .  A
C1778      C1779   1.404       .  A
C1778      H1791   1.082       .  S
C1779      C1780   1.407       .  A
C1779      H1792   1.083       .  S
C1780      C1781   1.408       .  A
C1780      C1783   1.494       .  S
C1781      C1782   1.400       .  A
C1781      H1793   1.082       .  S
C1782      H1794   1.083       .  S
C1783      C1784   1.351       .  D
C1783      H1795   1.086       .  S
C1784      C1785   1.494   1_556  S
C1784      H1796   1.086       .  S
C1785      C1786   1.406       .  A
C1785      C1790   1.408       .  A
C1786      C1787   1.402       .  A
C1786      H1797   1.084       .  S
C1787      C1788   1.406       .  A
C1787      H1798   1.083       .  S
C1788      C1789   1.409       .  A
C1789      C1790   1.404       .  A
C1789      H1799   1.084       .  S
C1790      H1800   1.081       .  S
C1801      C1802   1.406       .  A
C1801      C1806   1.407       .  A
C1802      C1803   1.399       .  A
C1802      H1815   1.083       .  S
C1803      C1804   1.404       .  A
C1803      H1816   1.083       .  S
C1804      C1805   1.408       .  A
C1804      C1807   1.491       .  S
C1805      C1806   1.402       .  A
C1805      H1817   1.082       .  S
C1806      H1818   1.083       .  S
C1807      C1808   1.349       .  D
C1807      H1819   1.086       .  S
C1808      C1809   1.488       .  S
C1808      H1820   1.085       .  S
C1809      C1810   1.404       .  A
C1809      C1814   1.408       .  A
C1810      C1811   1.398       .  A
C1810      H1821   1.083       .  S
C1811      C1812   1.401       .  A
C1811      H1822   1.083       .  S
C1812      C1813   1.404       .  A
C1813      C1814   1.402       .  A
C1813      H1823   1.083       .  S
C1814      H1824   1.082       .  S
C1825      C1826   1.404       .  A
C1825      C1830   1.407       .  A
C1826      C1827   1.394       .  A
C1826      H1839   1.083       .  S
C1827      C1828   1.404       .  A
C1827      H1840   1.084       .  S
C1828      C1829   1.411       .  A
C1828      C1831   1.495       .  S
C1829      C1830   1.409       .  A
C1829      H1841   1.081       .  S
C1830      H1842   1.083       .  S
C1831      C1832   1.352       .  D
C1831      H1843   1.087       .  S
C1832      C1833   1.495       .  S
C1832      H1844   1.084       .  S
C1833      C1834   1.407       .  A
C1833      C1838   1.407       .  A
C1834      C1835   1.408       .  A
C1834      H1845   1.083       .  S
C1835      C1836   1.405       .  A
C1835      H1846   1.083       .  S
C1836      C1837   1.404       .  A
C1837      C1838   1.396       .  A
C1837      H1847   1.084       .  S
C1838      H1848   1.083       .  S
C1849      C1850   1.406       .  A
C1849      C1854   1.409       .  A
C1850      C1851   1.395       .  A
C1850      H1863   1.083       .  S
C1851      C1852   1.402       .  A
C1851      H1864   1.083       .  S
C1852      C1853   1.407       .  A
C1852      C1855   1.485       .  S
C1853      C1854   1.406       .  A
C1853      H1865   1.082       .  S
C1854      H1866   1.082       .  S
C1855      C1856   1.347       .  D
C1855      H1867   1.088       .  S
C1856      C1857   1.484       .  S
C1856      H1868   1.086       .  S
C1857      C1858   1.404       .  A
C1857      C1862   1.403       .  A
C1858      C1859   1.405       .  A
C1858      H1869   1.083       .  S
C1859      C1860   1.407       .  A
C1859      H1870   1.083       .  S
C1860      C1861   1.404       .  A
C1861      C1862   1.395       .  A
C1861      H1871   1.083       .  S
C1862      H1872   1.083       .  S
C1873      C1874   1.404       .  A
C1873      C1878   1.406       .  A
C1874      C1875   1.400       .  A
C1874      H1887   1.083       .  S
C1875      C1876   1.405       .  A
C1875      H1888   1.084       .  S
C1876      C1877   1.407       .  A
C1876      C1879   1.489       .  S
C1877      C1878   1.400       .  A
C1877      H1889   1.081       .  S
C1878      H1890   1.083       .  S
C1879      C1880   1.352       .  D
C1879      H1891   1.084       .  S
C1880      C1881   1.493       .  S
C1880      H1892   1.085       .  S
C1881      C1882   1.407       .  A
C1881      C1886   1.408       .  A
C1882      C1883   1.402       .  A
C1882      H1893   1.083       .  S
C1883      C1884   1.403       .  A
C1883      H1894   1.083       .  S
C1884      C1885   1.404       .  A
C1885      C1886   1.397       .  A
C1885      H1895   1.083       .  S
C1886      H1896   1.080       .  S
C1897      C1898   1.406       .  A
C1897      C1902   1.406       .  A
C1898      C1899   1.398       .  A
C1898      H1911   1.083       .  S
C1899      C1900   1.404       .  A
C1899      H1912   1.084       .  S
C1900      C1901   1.412       .  A
C1900      C1903   1.498       .  S
C1901      C1902   1.406       .  A
C1901      H1913   1.080       .  S
C1902      H1914   1.083       .  S
C1903      C1904   1.351       .  D
C1903      H1915   1.084       .  S
C1904      C1905   1.497       .  S
C1904      H1916   1.083       .  S
C1905      C1906   1.405   1_556  A
C1905      C1910   1.411       .  A
C1906      C1907   1.400       .  A
C1906      H1917   1.083       .  S
C1907      C1908   1.403       .  A
C1907      H1918   1.080       .  S
C1908      C1909   1.404       .  A
C1909      C1910   1.403   1_554  A
C1909      H1919   1.083       .  S
C1910      H1920   1.081       .  S
C1921      C1922   1.406       .  A
C1921      C1926   1.405       .  A
C1922      C1923   1.405       .  A
C1922      H1935   1.083       .  S
C1923      C1924   1.405       .  A
C1923      H1936   1.083       .  S
C1924      C1925   1.405       .  A
C1924      C1927   1.486       .  S
C1925      C1926   1.396       .  A
C1925      H1937   1.083       .  S
C1926      H1938   1.083       .  S
C1927      C1928   1.348       .  D
C1927      H1939   1.085       .  S
C1928      C1929   1.488       .  S
C1928      H1940   1.087       .  S
C1929      C1930   1.406       .  A
C1929      C1934   1.407       .  A
C1930      C1931   1.401       .  A
C1930      H1941   1.083       .  S
C1931      C1932   1.401       .  A
C1931      H1942   1.084       .  S
C1932      C1933   1.403       .  A
C1933      C1934   1.400       .  A
C1933      H1943   1.083       .  S
C1934      H1944   1.082       .  S
C1945      C1946   1.406       .  A
C1945      C1950   1.407       .  A
C1946      C1947   1.402       .  A
C1946      H1959   1.083       .  S
C1947      C1948   1.406       .  A
C1947      H1960   1.083       .  S
C1948      C1949   1.407       .  A
C1948      C1951   1.491       .  S
C1949      C1950   1.399       .  A
C1949      H1961   1.082       .  S
C1950      H1962   1.083       .  S
C1951      C1952   1.352       .  D
C1951      H1963   1.084       .  S
C1952      C1953   1.494       .  S
C1952      H1964   1.085       .  S
C1953      C1954   1.409       .  A
C1953      C1958   1.408       .  A
C1954      C1955   1.404       .  A
C1954      H1965   1.083       .  S
C1955      C1956   1.403       .  A
C1955      H1966   1.083       .  S
C1956      C1957   1.404       .  A
C1957      C1958   1.396       .  A
C1957      H1967   1.083       .  S
C1958      H1968   1.080       .  S
C1969      C1970   1.406       .  A
C1969      C1974   1.407       .  A
C1970      C1971   1.395       .  A
C1970      H1983   1.083       .  S
C1971      C1972   1.402       .  A
C1971      H1984   1.084       .  S
C1972      C1973   1.411       .  A
C1972      C1975   1.493       .  S
C1973      C1974   1.408       .  A
C1973      H1985   1.081   1_655  S
C1974      H1986   1.083   1_655  S
C1975      C1976   1.349       .  D
C1975      H1987   1.085       .  S
C1976      C1977   1.495       .  S
C1976      H1988   1.085       .  S
C1977      C1978   1.407       .  A
C1977      C1982   1.410       .  A
C1978      C1979   1.403       .  A
C1978      H1989   1.083       .  S
C1979      C1980   1.403       .  A
C1979      H1990   1.083       .  S
C1980      C1981   1.402       .  A
C1981      C1982   1.399       .  A
C1981      H1991   1.083       .  S
C1982      H1992   1.081       .  S
C1993      C1994   1.407       .  A
C1993      C1998   1.409       .  A
C1994      C1995   1.395       .  A
C1994      H2007   1.083   1_655  S
C1995      C1996   1.401       .  A
C1995      H2008   1.084   1_655  S
C1996      C1997   1.409       .  A
C1996      C1999   1.489       .  S
C1997      C1998   1.409       .  A
C1997      H2009   1.082       .  S
C1998      H2010   1.083       .  S
C1999      C2000   1.348       .  D
C1999      H2011   1.087       .  S
C2000      C2001   1.493       .  S
C2000      H2012   1.086       .  S
C2001      C2002   1.407       .  A
C2001      C2006   1.407       .  A
C2002      C2003   1.406       .  A
C2002      H2013   1.083       .  S
C2003      C2004   1.404       .  A
C2003      H2014   1.081   1_655  S
C2004      C2005   1.405       .  A
C2005      C2006   1.397       .  A
C2005      H2015   1.083       .  S
C2006      H2016   1.082       .  S
C2017      C2018   1.403       .  A
C2017      C2022   1.405       .  A
C2018      C2019   1.400       .  A
C2018      H2031   1.084       .  S
C2019      C2020   1.404       .  A
C2019      H2032   1.083       .  S
C2020      C2021   1.408       .  A
C2020      C2023   1.489       .  S
C2021      C2022   1.403       .  A
C2021      H2033   1.083       .  S
C2022      H2034   1.083       .  S
C2023      C2024   1.345       .  D
C2023      H2035   1.087       .  S
C2024      C2025   1.484       .  S
C2024      H2036   1.086       .  S
C2025      C2026   1.402       .  A
C2025      C2030   1.405       .  A
C2026      C2027   1.403       .  A
C2026      H2037   1.083       .  S
C2027      C2028   1.408       .  A
C2027      H2038   1.083       .  S
C2028      C2029   1.405       .  A
C2029      C2030   1.401       .  A
C2029      H2039   1.083       .  S
C2030      H2040   1.083       .  S
C2041      C2042   1.401       .  A
C2041      C2046   1.402       .  A
C2042      C2043   1.397       .  A
C2042      H2055   1.083       .  S
C2043      C2044   1.405       .  A
C2043      H2056   1.084       .  S
C2044      C2045   1.410       .  A
C2044      C2047   1.490       .  S
C2045      C2046   1.403       .  A
C2045      H2057   1.081       .  S
C2046      H2058   1.083       .  S
C2047      C2048   1.350       .  D
C2047      H2059   1.086       .  S
C2048      C2049   1.489       .  S
C2048      H2060   1.084       .  S
C2049      C2050   1.404       .  A
C2049      C2054   1.406       .  A
C2050      C2051   1.403       .  A
C2050      H2061   1.083       .  S
C2051      C2052   1.407       .  A
C2051      H2062   1.083       .  S
C2052      C2053   1.407       .  A
C2053      C2054   1.397       .  A
C2053      H2063   1.083       .  S
C2054      H2064   1.082       .  S
C2065      C2066   1.401       .  A
C2065      C2070   1.403       .  A
C2066      C2067   1.399       .  A
C2066      H2079   1.083       .  S
C2067      C2068   1.407       .  A
C2067      H2080   1.083       .  S
C2068      C2069   1.409       .  A
C2068      C2071   1.494       .  S
C2069      C2070   1.402       .  A
C2069      H2081   1.081       .  S
C2070      H2082   1.080       .  S
C2071      C2072   1.353       .  D
C2071      H2083   1.084       .  S
C2072      C2073   1.496       .  S
C2072      H2084   1.084       .  S
C2073      C2074   1.408       .  A
C2073      C2078   1.408       .  A
C2074      C2075   1.405       .  A
C2074      H2085   1.083       .  S
C2075      C2076   1.405       .  A
C2075      H2086   1.083       .  S
C2076      C2077   1.407       .  A
C2077      C2078   1.397       .  A
C2077      H2087   1.083       .  S
C2078      H2088   1.081       .  S
C2089      C2090   1.409       .  A
C2089      C2094   1.406       .  A
C2090      C2091   1.406       .  A
C2090      H2103   1.083       .  S
C2091      C2092   1.404       .  A
C2091      H2104   1.083       .  S
C2092      C2093   1.404       .  A
C2092      C2095   1.485       .  S
C2093      C2094   1.393       .  A
C2093      H2105   1.083       .  S
C2094      H2106   1.083       .  S
C2095      C2096   1.348       .  D
C2095      H2107   1.085       .  S
C2096      C2097   1.487       .  S
C2096      H2108   1.087       .  S
C2097      C2098   1.405       .  A
C2097      C2102   1.409       .  A
C2098      C2099   1.396       .  A
C2098      H2109   1.083       .  S
C2099      C2100   1.400       .  A
C2099      H2110   1.084       .  S
C2100      C2101   1.403       .  A
C2101      C2102   1.402       .  A
C2101      H2111   1.083       .  S
C2102      H2112   1.082       .  S
C2113      C2114   1.401       .  A
C2113      C2118   1.403       .  A
C2114      C2115   1.400       .  A
C2114      H2127   1.083       .  S
C2115      C2116   1.406       .  A
C2115      H2128   1.083       .  S
C2116      C2117   1.409       .  A
C2116      C2119   1.491       .  S
C2117      C2118   1.400       .  A
C2117      H2129   1.081       .  S
C2118      H2130   1.083       .  S
C2119      C2120   1.349       .  D
C2119      H2131   1.086       .  S
C2120      C2121   1.489       .  S
C2120      H2132   1.084       .  S
C2121      C2122   1.405       .  A
C2121      C2126   1.406       .  A
C2122      C2123   1.404       .  A
C2122      H2133   1.083       .  S
C2123      C2124   1.406       .  A
C2123      H2134   1.083       .  S
C2124      C2125   1.405       .  A
C2125      C2126   1.397       .  A
C2125      H2135   1.083       .  S
C2126      H2136   1.083       .  S
C2137      C2138   1.402       .  A
C2137      C2142   1.403       .  A
C2138      C2139   1.402       .  A
C2138      H2151   1.084       .  S
C2139      C2140   1.407       .  A
C2139      H2152   1.083       .  S
C2140      C2141   1.407       .  A
C2140      C2143   1.490       .  S
C2141      C2142   1.398       .  A
C2141      H2153   1.082       .  S
C2142      H2154   1.083       .  S
C2143      C2144   1.349       .  D
C2143      H2155   1.086       .  S
C2144      C2145   1.488       .  S
C2144      H2156   1.085       .  S
C2145      C2146   1.406       .  A
C2145      C2150   1.406       .  A
C2146      C2147   1.404       .  A
C2146      H2157   1.083       .  S
C2147      C2148   1.404       .  A
C2147      H2158   1.083       .  S
C2148      C2149   1.405       .  A
C2149      C2150   1.397       .  A
C2149      H2159   1.083       .  S
C2150      H2160   1.083       .  S
C2161      C2162   1.405       .  A
C2161      C2166   1.406       .  A
C2162      C2163   1.403       .  A
C2162      H2175   1.081       .  S
C2163      C2164   1.405       .  A
C2163      H2176   1.083       .  S
C2164      C2165   1.405       .  A
C2164      C2167   1.487       .  S
C2165      C2166   1.397       .  A
C2165      H2177   1.082       .  S
C2166      H2178   1.082       .  S
C2167      C2168   1.349       .  D
C2167      H2179   1.086       .  S
C2168      C2169   1.487       .  S
C2168      H2180   1.087       .  S
C2169      C2170   1.405       .  A
C2169      C2174   1.406       .  A
C2170      C2171   1.401       .  A
C2170      H2181   1.084       .  S
C2171      C2172   1.405       .  A
C2171      H2182   1.083       .  S
C2172      C2173   1.406       .  A
C2173      C2174   1.399       .  A
C2173      H2183   1.084       .  S
C2174      H2184   1.082       .  S
C2185      C2186   1.405       .  A
C2185      C2190   1.409       .  A
C2186      C2187   1.393       .  A
C2186      H2199   1.083       .  S
C2187      C2188   1.402       .  A
C2187      H2200   1.084       .  S
C2188      C2189   1.407       .  A
C2188      C2191   1.484       .  S
C2189      C2190   1.406       .  A
C2189      H2201   1.082       .  S
C2190      H2202   1.083   1_565  S
C2191      C2192   1.347       .  D
C2191      H2203   1.088       .  S
C2192      C2193   1.486       .  S
C2192      H2204   1.086       .  S
C2193      C2194   1.405       .  A
C2193      C2198   1.405       .  A
C2194      C2195   1.405       .  A
C2194      H2205   1.083       .  S
C2195      C2196   1.405       .  A
C2195      H2206   1.083       .  S
C2196      C2197   1.403       .  A
C2197      C2198   1.394       .  A
C2197      H2207   1.084       .  S
C2198      H2208   1.083       .  S
C2209      C2210   1.404       .  A
C2209      C2214   1.403       .  A
C2210      C2211   1.401       .  A
C2210      H2223   1.083       .  S
C2211      C2212   1.404       .  A
C2211      H2224   1.083       .  S
C2212      C2213   1.409       .  A
C2212      C2215   1.492       .  S
C2213      C2214   1.400       .  A
C2213      H2225   1.082       .  S
C2214      H2226   1.083       .  S
C2215      C2216   1.351       .  D
C2215      H2227   1.083       .  S
C2216      C2217   1.495       .  S
C2216      H2228   1.086       .  S
C2217      C2218   1.404       .  A
C2217      C2222   1.411       .  A
C2218      C2219   1.396       .  A
C2218      H2229   1.083       .  S
C2219      C2220   1.405       .  A
C2219      H2230   1.083       .  S
C2220      C2221   1.407       .  A
C2221      C2222   1.406       .  A
C2221      H2231   1.083       .  S
C2222      H2232   1.080       .  S
C2233      C2234   1.401       .  A
C2233      C2238   1.402       .  A
C2234      C2235   1.402       .  A
C2234      H2247   1.083       .  S
C2235      C2236   1.407       .  A
C2235      H2248   1.083       .  S
C2236      C2237   1.411       .  A
C2236      C2239   1.497       .  S
C2237      C2238   1.400       .  A
C2237      H2249   1.080       .  S
C2238      H2250   1.084       .  S
C2239      C2240   1.351       .  D
C2239      H2251   1.085       .  S
C2240      C2241   1.494       .  S
C2240      H2252   1.084       .  S
C2241      C2242   1.404       .  A
C2241      C2246   1.411       .  A
C2242      C2243   1.396       .  A
C2242      H2253   1.084       .  S
C2243      C2244   1.405       .  A
C2243      H2254   1.083       .  S
C2244      C2245   1.406       .  A
C2245      C2246   1.407       .  A
C2245      H2255   1.083       .  S
C2246      H2256   1.081       .  S
C2257      C2258   1.405       .  A
C2257      C2262   1.406       .  A
C2258      C2259   1.401       .  A
C2258      H2271   1.081       .  S
C2259      C2260   1.404       .  A
C2259      H2272   1.083       .  S
C2260      C2261   1.408       .  A
C2260      C2263   1.491       .  S
C2261      C2262   1.402       .  A
C2261      H2273   1.083       .  S
C2262      H2274   1.082       .  S
C2263      C2264   1.347       .  D
C2263      H2275   1.086       .  S
C2264      C2265   1.488       .  S
C2264      H2276   1.086       .  S
C2265      C2266   1.402       .  A
C2265      C2270   1.409       .  A
C2266      C2267   1.398       .  A
C2266      H2277   1.083       .  S
C2267      C2268   1.406       .  A
C2267      H2278   1.083       .  S
C2268      C2269   1.407       .  A
C2269      C2270   1.406       .  A
C2269      H2279   1.083       .  S
C2270      H2280   1.083       .  S
C2281      C2282   1.404       .  A
C2281      C2286   1.408       .  A
C2282      C2283   1.396       .  A
C2282      H2295   1.083       .  S
C2283      C2284   1.404       .  A
C2283      H2296   1.084       .  S
C2284      C2285   1.408       .  A
C2284      C2287   1.489       .  S
C2285      C2286   1.404       .  A
C2285      H2297   1.082       .  S
C2286      H2298   1.083       .  S
C2287      C2288   1.351       .  D
C2287      H2299   1.085       .  S
C2288      C2289   1.491       .  S
C2288      H2300   1.085       .  S
C2289      C2290   1.407       .  A
C2289      C2294   1.408       .  A
C2290      C2291   1.403       .  A
C2290      H2301   1.083       .  S
C2291      C2292   1.402       .  A
C2291      H2302   1.083       .  S
C2292      C2293   1.402       .  A
C2293      C2294   1.396       .  A
C2293      H2303   1.083       .  S
C2294      H2304   1.082       .  S
C2305      C2306   1.402       .  A
C2305      C2310   1.404       .  A
C2306      C2307   1.403       .  A
C2306      H2319   1.083       .  S
C2307      C2308   1.409       .  A
C2307      H2320   1.083       .  S
C2308      C2309   1.408       .  A
C2308      C2311   1.494       .  S
C2309      C2310   1.396       .  A
C2309      H2321   1.080       .  S
C2310      H2322   1.084       .  S
C2311      C2312   1.351       .  D
C2311      H2323   1.086       .  S
C2312      C2313   1.490       .  S
C2312      H2324   1.083       .  S
C2313      C2314   1.404       .  A
C2313      C2318   1.407       .  A
C2314      C2315   1.401       .  A
C2314      H2325   1.083       .  S
C2315      C2316   1.406       .  A
C2315      H2326   1.083       .  S
C2316      C2317   1.407       .  A
C2317      C2318   1.399       .  A
C2317      H2327   1.083       .  S
C2318      H2328   1.082       .  S
C2329      C2330   1.408       .  A
C2329      C2334   1.405       .  A
C2330      C2331   1.398       .  A
C2330      H2343   1.083       .  S
C2331      C2332   1.402       .  A
C2331      H2344   1.084       .  S
C2332      C2333   1.411       .  A
C2332      C2335   1.492       .  S
C2333      C2334   1.404       .  A
C2333      H2345   1.081       .  S
C2334      H2346   1.083       .  S
C2335      C2336   1.348       .  D
C2335      H2347   1.084       .  S
C2336      C2337   1.493       .  S
C2336      H2348   1.085       .  S
C2337      C2338   1.403       .  A
C2337      C2342   1.412       .  A
C2338      C2339   1.396       .  A
C2338      H2349   1.083       .  S
C2339      C2340   1.404       .  A
C2339      H2350   1.083       .  S
C2340      C2341   1.404       .  A
C2341      C2342   1.403       .  A
C2341      H2351   1.083       .  S
C2342      H2352   1.081       .  S
C2353      C2354   1.407       .  A
C2353      C2358   1.407       .  A
C2354      C2355   1.397       .  A
C2354      H2367   1.083       .  S
C2355      C2356   1.402       .  A
C2355      H2368   1.084       .  S
C2356      C2357   1.410       .  A
C2356      C2359   1.489       .  S
C2357      C2358   1.403       .  A
C2357      H2369   1.082       .  S
C2358      H2370   1.083       .  S
C2359      C2360   1.348       .  D
C2359      H2371   1.083       .  S
C2360      C2361   1.494       .  S
C2360      H2372   1.086       .  S
C2361      C2362   1.405       .  A
C2361      C2366   1.413       .  A
C2362      C2363   1.397       .  A
C2362      H2373   1.084       .  S
C2363      C2364   1.401       .  A
C2363      H2374   1.083       .  S
C2364      C2365   1.400       .  A
C2365      C2366   1.402       .  A
C2365      H2375   1.084       .  S
C2366      H2376   1.080       .  S
C2377      C2378   1.407       .  A
C2377      C2382   1.405       .  A
C2378      C2379   1.401       .  A
C2378      H2391   1.083       .  S
C2379      C2380   1.403       .  A
C2379      H2392   1.083       .  S
C2380      C2381   1.409       .  A
C2380      C2383   1.490       .  S
C2381      C2382   1.401       .  A
C2381      H2393   1.083       .  S
C2382      H2394   1.083       .  S
C2383      C2384   1.348       .  D
C2383      H2395   1.084       .  S
C2384      C2385   1.492       .  S
C2384      H2396   1.086       .  S
C2385      C2386   1.405       .  A
C2385      C2390   1.410       .  A
C2386      C2387   1.398       .  A
C2386      H2397   1.083       .  S
C2387      C2388   1.402       .  A
C2387      H2398   1.084       .  S
C2388      C2389   1.403       .  A
C2389      C2390   1.403       .  A
C2389      H2399   1.083       .  S
C2390      H2400   1.081       .  S
C2401      C2402   1.402       .  A
C2401      C2406   1.405       .  A
C2402      C2403   1.404       .  A
C2402      H2415   1.082       .  S
C2403      C2404   1.408       .  A
C2403      H2416   1.083       .  S
C2404      C2405   1.410       .  A
C2404      C2407   1.499       .  S
C2405      C2406   1.400       .  A
C2405      H2417   1.080       .  S
C2406      H2418   1.083       .  S
C2407      C2408   1.353       .  D
C2407      H2419   1.084       .  S
C2408      C2409   1.497       .  S
C2408      H2420   1.084   1_565  S
C2409      C2410   1.406   1_565  A
C2409      C2414   1.409       .  A
C2410      C2411   1.400       .  A
C2410      H2421   1.083       .  S
C2411      C2412   1.405       .  A
C2411      H2422   1.083       .  S
C2412      C2413   1.408   1_545  A
C2413      C2414   1.404       .  A
C2413      H2423   1.083       .  S
C2414      H2424   1.081       .  S
C2425      C2426   1.402       .  A
C2425      C2430   1.402       .  A
C2426      C2427   1.399       .  A
C2426      H2439   1.084       .  S
C2427      C2428   1.405       .  A
C2427      H2440   1.083       .  S
C2428      C2429   1.410       .  A
C2428      C2431   1.491       .  S
C2429      C2430   1.402       .  A
C2429      H2441   1.081       .  S
C2430      H2442   1.083       .  S
C2431      C2432   1.348       .  D
C2431      H2443   1.086       .  S
C2432      C2433   1.490       .  S
C2432      H2444   1.085       .  S
C2433      C2434   1.405       .  A
C2433      C2438   1.408       .  A
C2434      C2435   1.402       .  A
C2434      H2445   1.083       .  S
C2435      C2436   1.406       .  A
C2435      H2446   1.083       .  S
C2436      C2437   1.405       .  A
C2437      C2438   1.398       .  A
C2437      H2447   1.083       .  S
C2438      H2448   1.082       .  S
C2449      C2450   1.404       .  A
C2449      C2454   1.403       .  A
C2450      C2451   1.399       .  A
C2450      H2463   1.083       .  S
C2451      C2452   1.403       .  A
C2451      H2464   1.083       .  S
C2452      C2453   1.409       .  A
C2452      C2455   1.490       .  S
C2453      C2454   1.403       .  A
C2453      H2465   1.083       .  S
C2454      H2466   1.083       .  S
C2455      C2456   1.348       .  D
C2455      H2467   1.085       .  S
C2456      C2457   1.491       .  S
C2456      H2468   1.086       .  S
C2457      C2458   1.403       .  A
C2457      C2462   1.409       .  A
C2458      C2459   1.397       .  A
C2458      H2469   1.083       .  S
C2459      C2460   1.406       .  A
C2459      H2470   1.083       .  S
C2460      C2461   1.408       .  A
C2461      C2462   1.405       .  A
C2461      H2471   1.083       .  S
C2462      H2472   1.082       .  S
C2473      C2474   1.404       .  A
C2473      C2478   1.408       .  A
C2474      C2475   1.396       .  A
C2474      H2487   1.083       .  S
C2475      C2476   1.403       .  A
C2475      H2488   1.084       .  S
C2476      C2477   1.409       .  A
C2476      C2479   1.490       .  S
C2477      C2478   1.406       .  A
C2477      H2489   1.082       .  S
C2478      H2490   1.083       .  S
C2479      C2480   1.351       .  D
C2479      H2491   1.085       .  S
C2480      C2481   1.494       .  S
C2480      H2492   1.086       .  S
C2481      C2482   1.407       .  A
C2481      C2486   1.408       .  A
C2482      C2483   1.405       .  A
C2482      H2493   1.083       .  S
C2483      C2484   1.403       .  A
C2483      H2494   1.083       .  S
C2484      C2485   1.403       .  A
C2485      C2486   1.397       .  A
C2485      H2495   1.084       .  S
C2486      H2496   1.082       .  S
C2497      C2498   1.405       .  A
C2497      C2502   1.405       .  A
C2498      C2499   1.403       .  A
C2498      H2511   1.082       .  S
C2499      C2500   1.407   1_554  A
C2499      H2512   1.083       .  S
C2500      C2501   1.410       .  A
C2500      C2503   1.499       .  S
C2501      C2502   1.399   1_556  A
C2501      H2513   1.079       .  S
C2502      H2514   1.082       .  S
C2503      C2504   1.352       .  D
C2503      H2515   1.085       .  S
C2504      C2505   1.495       .  S
C2504      H2516   1.083       .  S
C2505      C2506   1.404       .  A
C2505      C2510   1.410       .  A
C2506      C2507   1.398       .  A
C2506      H2517   1.083       .  S
C2507      C2508   1.406       .  A
C2507      H2518   1.083       .  S
C2508      C2509   1.408       .  A
C2509      C2510   1.406       .  A
C2509      H2519   1.083   1_565  S
C2510      H2520   1.081       .  S
C2521      C2522   1.400       .  A
C2521      C2526   1.402       .  A
C2522      C2523   1.402       .  A
C2522      H2535   1.083       .  S
C2523      C2524   1.408       .  A
C2523      H2536   1.083       .  S
C2524      C2525   1.408       .  A
C2524      C2527   1.493       .  S
C2525      C2526   1.397       .  A
C2525      H2537   1.081       .  S
C2526      H2538   1.084       .  S
C2527      C2528   1.352       .  D
C2527      H2539   1.083       .  S
C2528      C2529   1.493       .  S
C2528      H2540   1.084       .  S
C2529      C2530   1.406       .  A
C2529      C2534   1.410       .  A
C2530      C2531   1.398       .  A
C2530      H2541   1.084       .  S
C2531      C2532   1.404       .  A
C2531      H2542   1.083       .  S
C2532      C2533   1.406       .  A
C2533      C2534   1.400       .  A
C2533      H2543   1.083       .  S
C2534      H2544   1.079       .  S
C2545      C2546   1.406       .  A
C2545      C2550   1.407       .  A
C2546      C2547   1.397       .  A
C2546      H2559   1.083       .  S
C2547      C2548   1.404       .  A
C2547      H2560   1.084       .  S
C2548      C2549   1.412       .  A
C2548      C2551   1.495       .  S
C2549      C2550   1.405       .  A
C2549      H2561   1.080       .  S
C2550      H2562   1.083       .  S
C2551      C2552   1.349       .  D
C2551      H2563   1.085       .  S
C2552      C2553   1.495       .  S
C2552      H2564   1.084       .  S
C2553      C2554   1.406       .  A
C2553      C2558   1.410       .  A
C2554      C2555   1.403       .  A
C2554      H2565   1.083       .  S
C2555      C2556   1.403       .  A
C2555      H2566   1.083       .  S
C2556      C2557   1.402       .  A
C2557      C2558   1.400       .  A
C2557      H2567   1.083       .  S
C2558      H2568   1.081       .  S
C2569      C2570   1.405       .  A
C2569      C2574   1.407       .  A
C2570      C2571   1.395       .  A
C2570      H2583   1.083       .  S
C2571      C2572   1.403       .  A
C2571      H2584   1.084       .  S
C2572      C2573   1.409       .  A
C2572      C2575   1.489       .  S
C2573      C2574   1.406       .  A
C2573      H2585   1.082       .  S
C2574      H2586   1.083   1_455  S
C2575      C2576   1.350       .  D
C2575      H2587   1.086       .  S
C2576      C2577   1.492       .  S
C2576      H2588   1.086       .  S
C2577      C2578   1.406       .  A
C2577      C2582   1.409       .  A
C2578      C2579   1.402       .  A
C2578      H2589   1.084       .  S
C2579      C2580   1.402       .  A
C2579      H2590   1.083       .  S
C2580      C2581   1.402       .  A
C2581      C2582   1.399       .  A
C2581      H2591   1.084       .  S
C2582      H2592   1.082       .  S
C2593      C2594   1.402       .  A
C2593      C2598   1.405       .  A
C2594      C2595   1.400       .  A
C2594      H2607   1.083       .  S
C2595      C2596   1.407       .  A
C2595      H2608   1.082       .  S
C2596      C2597   1.412       .  A
C2596      C2599   1.499       .  S
C2597      C2598   1.407       .  A
C2597      H2609   1.082       .  S
C2598      H2610   1.082       .  S
C2599      C2600   1.354       .  D
C2599      H2611   1.082       .  S
C2600      C2601   1.503       .  S
C2600      H2612   1.083       .  S
C2601      C2602   1.408   1_455  A
C2601      C2606   1.411       .  A
C2602      C2603   1.404       .  A
C2602      H2613   1.083       .  S
C2603      C2604   1.406   1_655  A
C2603      H2614   1.083       .  S
C2604      C2605   1.407       .  A
C2605      C2606   1.403       .  A
C2605      H2615   1.083       .  S
C2606      H2616   1.080       .  S
C2617      C2618   1.402       .  A
C2617      C2622   1.402       .  A
C2618      C2619   1.399       .  A
C2618      H2631   1.082       .  S
C2619      C2620   1.405       .  A
C2619      H2632   1.083       .  S
C2620      C2621   1.409       .  A
C2620      C2623   1.488       .  S
C2621      C2622   1.398       .  A
C2621      H2633   1.082       .  S
C2622      H2634   1.083       .  S
C2623      C2624   1.346       .  D
C2623      H2635   1.086       .  S
C2624      C2625   1.485       .  S
C2624      H2636   1.085       .  S
C2625      C2626   1.402       .  A
C2625      C2630   1.408       .  A
C2626      C2627   1.399       .  A
C2626      H2637   1.083       .  S
C2627      C2628   1.407       .  A
C2627      H2638   1.083       .  S
C2628      C2629   1.406       .  A
C2629      C2630   1.401       .  A
C2629      H2639   1.083       .  S
C2630      H2640   1.083       .  S
C2641      C2642   1.406       .  A
C2641      C2646   1.406       .  A
C2642      C2643   1.397       .  A
C2642      H2655   1.083       .  S
C2643      C2644   1.402       .  A
C2643      H2656   1.083       .  S
C2644      C2645   1.408       .  A
C2644      C2647   1.485       .  S
C2645      C2646   1.402       .  A
C2645      H2657   1.082       .  S
C2646      H2658   1.083       .  S
C2647      C2648   1.347       .  D
C2647      H2659   1.086       .  S
C2648      C2649   1.489       .  S
C2648      H2660   1.086       .  S
C2649      C2650   1.406       .  A
C2649      C2654   1.407       .  A
C2650      C2651   1.402       .  A
C2650      H2661   1.083       .  S
C2651      C2652   1.403       .  A
C2651      H2662   1.083       .  S
C2652      C2653   1.403       .  A
C2653      C2654   1.397       .  A
C2653      H2663   1.083       .  S
C2654      H2664   1.082       .  S
C2665      C2666   1.405       .  A
C2665      C2670   1.408       .  A
C2666      C2667   1.392       .  A
C2666      H2679   1.083       .  S
C2667      C2668   1.401       .  A
C2667      H2680   1.084       .  S
C2668      C2669   1.407       .  A
C2668      C2671   1.482       .  S
C2669      C2670   1.406       .  A
C2669      H2681   1.082       .  S
C2670      H2682   1.083       .  S
C2671      C2672   1.346       .  D
C2671      H2683   1.088       .  S
C2672      C2673   1.483       .  S
C2672      H2684   1.086       .  S
C2673      C2674   1.404       .  A
C2673      C2678   1.404       .  A
C2674      C2675   1.405       .  A
C2674      H2685   1.083       .  S
C2675      C2676   1.406       .  A
C2675      H2686   1.083       .  S
C2676      C2677   1.403       .  A
C2677      C2678   1.394       .  A
C2677      H2687   1.083       .  S
C2678      H2688   1.084       .  S
C2689      C2690   1.404       .  A
C2689      C2694   1.407       .  A
C2690      C2691   1.395       .  A
C2690      H2703   1.084       .  S
C2691      C2692   1.403       .  A
C2691      H2704   1.083       .  S
C2692      C2693   1.409       .  A
C2692      C2695   1.488       .  S
C2693      C2694   1.408       .  A
C2693      H2705   1.082       .  S
C2694      H2706   1.083       .  S
C2695      C2696   1.348       .  D
C2695      H2707   1.088       .  S
C2696      C2697   1.487       .  S
C2696      H2708   1.085       .  S
C2697      C2698   1.406       .  A
C2697      C2702   1.402       .  A
C2698      C2699   1.408       .  A
C2698      H2709   1.083       .  S
C2699      C2700   1.407       .  A
C2699      H2710   1.083       .  S
C2700      C2701   1.405       .  A
C2701      C2702   1.393       .  A
C2701      H2711   1.083       .  S
C2702      H2712   1.084       .  S
C2713      C2714   1.405       .  A
C2713      C2718   1.408       .  A
C2714      C2715   1.402       .  A
C2714      H2727   1.083       .  S
C2715      C2716   1.405       .  A
C2715      H2728   1.084       .  S
C2716      C2717   1.406       .  A
C2716      C2719   1.491       .  S
C2717      C2718   1.407       .  A
C2717      H2729   1.083       .  S
C2718      H2730   1.083       .  S
C2719      C2720   1.352       .  D
C2719      H2731   1.087       .  S
C2720      C2721   1.493       .  S
C2720      H2732   1.086       .  S
C2721      C2722   1.409       .  A
C2721      C2726   1.402       .  A
C2722      C2723   1.410       .  A
C2722      H2733   1.083       .  S
C2723      C2724   1.406       .  A
C2723      H2734   1.083       .  S
C2724      C2725   1.408       .  A
C2725      C2726   1.397       .  A
C2725      H2735   1.083       .  S
C2726      H2736   1.083       .  S
C2737      C2738   1.405       .  A
C2737      C2742   1.408       .  A
C2738      C2739   1.401       .  A
C2738      H2751   1.083       .  S
C2739      C2740   1.405       .  A
C2739      H2752   1.084       .  S
C2740      C2741   1.407       .  A
C2740      C2743   1.491       .  S
C2741      C2742   1.400       .  A
C2741      H2753   1.081       .  S
C2742      H2754   1.083       .  S
C2743      C2744   1.350       .  D
C2743      H2755   1.086       .  S
C2744      C2745   1.490       .  S
C2744      H2756   1.086       .  S
C2745      C2746   1.406       .  A
C2745      C2750   1.407       .  A
C2746      C2747   1.402       .  A
C2746      H2757   1.083       .  S
C2747      C2748   1.401       .  A
C2747      H2758   1.081       .  S
C2748      C2749   1.403       .  A
C2749      C2750   1.399       .  A
C2749      H2759   1.083       .  S
C2750      H2760   1.082       .  S
C2761      C2762   1.402       .  A
C2761      C2766   1.402       .  A
C2762      C2763   1.401       .  A
C2762      H2775   1.083       .  S
C2763      C2764   1.405       .  A
C2763      H2776   1.083       .  S
C2764      C2765   1.408       .  A
C2764      C2767   1.485       .  S
C2765      C2766   1.397       .  A
C2765      H2777   1.082       .  S
C2766      H2778   1.083       .  S
C2767      C2768   1.345       .  D
C2767      H2779   1.087       .  S
C2768      C2769   1.483       .  S
C2768      H2780   1.086       .  S
C2769      C2770   1.402       .  A
C2769      C2774   1.407       .  A
C2770      C2771   1.399       .  A
C2770      H2781   1.083       .  S
C2771      C2772   1.407       .  A
C2771      H2782   1.083       .  S
C2772      C2773   1.405       .  A
C2773      C2774   1.399       .  A
C2773      H2783   1.083       .  S
C2774      H2784   1.083       .  S
C2785      C2786   1.407       .  A
C2785      C2790   1.406       .  A
C2786      C2787   1.400       .  A
C2786      H2799   1.083       .  S
C2787      C2788   1.403       .  A
C2787      H2800   1.083       .  S
C2788      C2789   1.409       .  A
C2788      C2791   1.490       .  S
C2789      C2790   1.401       .  A
C2789      H2801   1.082       .  S
C2790      H2802   1.083       .  S
C2791      C2792   1.348       .  D
C2791      H2803   1.086       .  S
C2792      C2793   1.492       .  S
C2792      H2804   1.086       .  S
C2793      C2794   1.405       .  A
C2793      C2798   1.409       .  A
C2794      C2795   1.400       .  A
C2794      H2805   1.083       .  S
C2795      C2796   1.403       .  A
C2795      H2806   1.084       .  S
C2796      C2797   1.404       .  A
C2797      C2798   1.402       .  A
C2797      H2807   1.083       .  S
C2798      H2808   1.082       .  S
C2809      C2810   1.406       .  A
C2809      C2814   1.408   1_565  A
C2810      C2811   1.396       .  A
C2810      H2823   1.083       .  S
C2811      C2812   1.403       .  A
C2811      H2824   1.084       .  S
C2812      C2813   1.410   1_565  A
C2812      C2815   1.492       .  S
C2813      C2814   1.408       .  A
C2813      H2825   1.082       .  S
C2814      H2826   1.083       .  S
C2815      C2816   1.349       .  D
C2815      H2827   1.087       .  S
C2816      C2817   1.491       .  S
C2816      H2828   1.085   1_565  S
C2817      C2818   1.403       .  A
C2817      C2822   1.409       .  A
C2818      C2819   1.400       .  A
C2818      H2829   1.083       .  S
C2819      C2820   1.404       .  A
C2819      H2830   1.083       .  S
C2820      C2821   1.402       .  A
C2821      C2822   1.402       .  A
C2821      H2831   1.083       .  S
C2822      H2832   1.083       .  S
C2833      C2834   1.405       .  A
C2833      C2838   1.406       .  A
C2834      C2835   1.402       .  A
C2834      H2847   1.079       .  S
C2835      C2836   1.405       .  A
C2835      H2848   1.083       .  S
C2836      C2837   1.408       .  A
C2836      C2839   1.494       .  S
C2837      C2838   1.401       .  A
C2837      H2849   1.082       .  S
C2838      H2850   1.082       .  S
C2839      C2840   1.348   1_556  D
C2839      H2851   1.087   1_556  S
C2840      C2841   1.489       .  S
C2840      H2852   1.086   1_554  S
C2841      C2842   1.401       .  A
C2841      C2846   1.410       .  A
C2842      C2843   1.396       .  A
C2842      H2853   1.084       .  S
C2843      C2844   1.407       .  A
C2843      H2854   1.084       .  S
C2844      C2845   1.405       .  A
C2845      C2846   1.408       .  A
C2845      H2855   1.083       .  S
C2846      H2856   1.082       .  S
C2857      C2858   1.404       .  A
C2857      C2862   1.406       .  A
C2858      C2859   1.396       .  A
C2858      H2871   1.083       .  S
C2859      C2860   1.403       .  A
C2859      H2872   1.084       .  S
C2860      C2861   1.408       .  A
C2860      C2863   1.487       .  S
C2861      C2862   1.403       .  A
C2861      H2873   1.082       .  S
C2862      H2874   1.083       .  S
C2863      C2864   1.349       .  D
C2863      H2875   1.085       .  S
C2864      C2865   1.490       .  S
C2864      H2876   1.086       .  S
C2865      C2866   1.405       .  A
C2865      C2870   1.409       .  A
C2866      C2867   1.400       .  A
C2866      H2877   1.084       .  S
C2867      C2868   1.401       .  A
C2867      H2878   1.083       .  S
C2868      C2869   1.402       .  A
C2869      C2870   1.399       .  A
C2869      H2879   1.083       .  S
C2870      H2880   1.081       .  S
C2881      C2882   1.404       .  A
C2881      C2886   1.403       .  A
C2882      C2883   1.402       .  A
C2882      H2895   1.083       .  S
C2883      C2884   1.406       .  A
C2883      H2896   1.083       .  S
C2884      C2885   1.410       .  A
C2884      C2887   1.495       .  S
C2885      C2886   1.401       .  A
C2885      H2897   1.081       .  S
C2886      H2898   1.080       .  S
C2887      C2888   1.349       .  D
C2887      H2899   1.086       .  S
C2888      C2889   1.491       .  S
C2888      H2900   1.085       .  S
C2889      C2890   1.402       .  A
C2889      C2894   1.410       .  A
C2890      C2891   1.397       .  A
C2890      H2901   1.083       .  S
C2891      C2892   1.406       .  A
C2891      H2902   1.083       .  S
C2892      C2893   1.407       .  A
C2893      C2894   1.407       .  A
C2893      H2903   1.083       .  S
C2894      H2904   1.082       .  S
C2905      C2906   1.403       .  A
C2905      C2910   1.404       .  A
C2906      C2907   1.404       .  A
C2906      H2919   1.083       .  S
C2907      C2908   1.409       .  A
C2907      H2920   1.083       .  S
C2908      C2909   1.409       .  A
C2908      C2911   1.498       .  S
C2909      C2910   1.397       .  A
C2909      H2921   1.079       .  S
C2910      H2922   1.084       .  S
C2911      C2912   1.353       .  D
C2911      H2923   1.084       .  S
C2912      C2913   1.495       .  S
C2912      H2924   1.083       .  S
C2913      C2914   1.407       .  A
C2913      C2918   1.409       .  A
C2914      C2915   1.401       .  A
C2914      H2925   1.083       .  S
C2915      C2916   1.405       .  A
C2915      H2926   1.083       .  S
C2916      C2917   1.408       .  A
C2917      C2918   1.401       .  A
C2917      H2927   1.083       .  S
C2918      H2928   1.081       .  S
C2929      C2930   1.402       .  A
C2929      C2934   1.402       .  A
C2930      C2931   1.403       .  A
C2930      H2943   1.083       .  S
C2931      C2932   1.408       .  A
C2931      H2944   1.083       .  S
C2932      C2933   1.409       .  A
C2932      C2935   1.495       .  S
C2933      C2934   1.397       .  A
C2933      H2945   1.080       .  S
C2934      H2946   1.084       .  S
C2935      C2936   1.353       .  D
C2935      H2947   1.083       .  S
C2936      C2937   1.495       .  S
C2936      H2948   1.084       .  S
C2937      C2938   1.407       .  A
C2937      C2942   1.409       .  A
C2938      C2939   1.400       .  A
C2938      H2949   1.084       .  S
C2939      C2940   1.405       .  A
C2939      H2950   1.083       .  S
C2940      C2941   1.407       .  A
C2941      C2942   1.401       .  A
C2941      H2951   1.083       .  S
C2942      H2952   1.079       .  S
C2953      C2954   1.407       .  A
C2953      C2958   1.407       .  A
C2954      C2955   1.394       .  A
C2954      H2967   1.083       .  S
C2955      C2956   1.402       .  A
C2955      H2968   1.084       .  S
C2956      C2957   1.412       .  A
C2956      C2959   1.494       .  S
C2957      C2958   1.408       .  A
C2957      H2969   1.081       .  S
C2958      H2970   1.083       .  S
C2959      C2960   1.349       .  D
C2959      H2971   1.086       .  S
C2960      C2961   1.492       .  S
C2960      H2972   1.085       .  S
C2961      C2962   1.402       .  A
C2961      C2966   1.411       .  A
C2962      C2963   1.398       .  A
C2962      H2973   1.084       .  S
C2963      C2964   1.405       .  A
C2963      H2974   1.083       .  S
C2964      C2965   1.403       .  A
C2965      C2966   1.404       .  A
C2965      H2975   1.083       .  S
C2966      H2976   1.082       .  S
C2977      C2978   1.406       .  A
C2977      C2982   1.407       .  A
C2978      C2979   1.398       .  A
C2978      H2991   1.083       .  S
C2979      C2980   1.403       .  A
C2979      H2992   1.083       .  S
C2980      C2981   1.409       .  A
C2980      C2983   1.492       .  S
C2981      C2982   1.404       .  A
C2981      H2993   1.082       .  S
C2982      H2994   1.082       .  S
C2983      C2984   1.349       .  D
C2983      H2995   1.085       .  S
C2984      C2985   1.494       .  S
C2984      H2996   1.085       .  S
C2985      C2986   1.406       .  A
C2985      C2990   1.409       .  A
C2986      C2987   1.401       .  A
C2986      H2997   1.083       .  S
C2987      C2988   1.403       .  A
C2987      H2998   1.082       .  S
C2988      C2989   1.404       .  A
C2989      C2990   1.401       .  A
C2989      H2999   1.083       .  S
C2990      H3000   1.081       .  S
C3001      C3002   1.404       .  A
C3001      C3006   1.405       .  A
C3002      C3003   1.393       .  A
C3002      H3015   1.084       .  S
C3003      C3004   1.401       .  A
C3003      H3016   1.083       .  S
C3004      C3005   1.410       .  A
C3004      C3007   1.485       .  S
C3005      C3006   1.407       .  A
C3005      H3017   1.083       .  S
C3006      H3018   1.083       .  S
C3007      C3008   1.346       .  D
C3007      H3019   1.087       .  S
C3008      C3009   1.487       .  S
C3008      H3020   1.086       .  S
C3009      C3010   1.402       .  A
C3009      C3014   1.409       .  A
C3010      C3011   1.397       .  A
C3010      H3021   1.083       .  S
C3011      C3012   1.404       .  A
C3011      H3022   1.083       .  S
C3012      C3013   1.403       .  A
C3013      C3014   1.402       .  A
C3013      H3023   1.083       .  S
C3014      H3024   1.083       .  S
C3025      C3026   1.400       .  A
C3025      C3030   1.404       .  A
C3026      C3027   1.395       .  A
C3026      H3039   1.084       .  S
C3027      C3028   1.404       .  A
C3027      H3040   1.083       .  S
C3028      C3029   1.410       .  A
C3028      C3031   1.488       .  S
C3029      C3030   1.406       .  A
C3029      H3041   1.082       .  S
C3030      H3042   1.083       .  S
C3031      C3032   1.348       .  D
C3031      H3043   1.087       .  S
C3032      C3033   1.487       .  S
C3032      H3044   1.084       .  S
C3033      C3034   1.405       .  A
C3033      C3038   1.404       .  A
C3034      C3035   1.407       .  A
C3034      H3045   1.083       .  S
C3035      C3036   1.408       .  A
C3035      H3046   1.083       .  S
C3036      C3037   1.407       .  A
C3037      C3038   1.393       .  A
C3037      H3047   1.083       .  S
C3038      H3048   1.084       .  S
C3049      C3050   1.407       .  A
C3049      C3054   1.408       .  A
C3050      C3051   1.399       .  A
C3050      H3063   1.083       .  S
C3051      C3052   1.405       .  A
C3051      H3064   1.083       .  S
C3052      C3053   1.412       .  A
C3052      C3055   1.500       .  S
C3053      C3054   1.408       .  A
C3053      H3065   1.080       .  S
C3054      H3066   1.083       .  S
C3055      C3056   1.352       .  D
C3055      H3067   1.086       .  S
C3056      C3057   1.496       .  S
C3056      H3068   1.083       .  S
C3057      C3058   1.404       .  A
C3057      C3062   1.410       .  A
C3058      C3059   1.401       .  A
C3058      H3069   1.083       .  S
C3059      C3060   1.404       .  A
C3059      H3070   1.083       .  S
C3060      C3061   1.403       .  A
C3061      C3062   1.404       .  A
C3061      H3071   1.083       .  S
C3062      H3072   1.082       .  S
C3073      C3074   1.406       .  A
C3073      C3078   1.407       .  A
C3074      C3075   1.402       .  A
C3074      H3087   1.083       .  S
C3075      C3076   1.405       .  A
C3075      H3088   1.083       .  S
C3076      C3077   1.405       .  A
C3076      C3079   1.488       .  S
C3077      C3078   1.399       .  A
C3077      H3089   1.083       .  S
C3078      H3090   1.083       .  S
C3079      C3080   1.348       .  D
C3079      H3091   1.087       .  S
C3080      C3081   1.485       .  S
C3080      H3092   1.086       .  S
C3081      C3082   1.402       .  A
C3081      C3086   1.405       .  A
C3082      C3083   1.400       .  A
C3082      H3093   1.083       .  S
C3083      C3084   1.408       .  A
C3083      H3094   1.081       .  S
C3084      C3085   1.408       .  A
C3085      C3086   1.401       .  A
C3085      H3095   1.080       .  S
C3086      H3096   1.083       .  S
C3097      C3098   1.406       .  A
C3097      C3102   1.406       .  A
C3098      C3099   1.401       .  A
C3098      H3111   1.083       .  S
C3099      C3100   1.404       .  A
C3099      H3112   1.083       .  S
C3100      C3101   1.408       .  A
C3100      C3103   1.490       .  S
C3101      C3102   1.401       .  A
C3101      H3113   1.082       .  S
C3102      H3114   1.083       .  S
C3103      C3104   1.348       .  D
C3103      H3115   1.086       .  S
C3104      C3105   1.490       .  S
C3104      H3116   1.086       .  S
C3105      C3106   1.406       .  A
C3105      C3110   1.408       .  A
C3106      C3107   1.402       .  A
C3106      H3117   1.083       .  S
C3107      C3108   1.403       .  A
C3107      H3118   1.083       .  S
C3108      C3109   1.404       .  A
C3109      C3110   1.399       .  A
C3109      H3119   1.083       .  S
C3110      H3120   1.082       .  S
C3121      C3122   1.403       .  A
C3121      C3126   1.404       .  A
C3122      C3123   1.405       .  A
C3122      H3135   1.080       .  S
C3123      C3124   1.408       .  A
C3123      H3136   1.083       .  S
C3124      C3125   1.407       .  A
C3124      C3127   1.494       .  S
C3125      C3126   1.396       .  A
C3125      H3137   1.081       .  S
C3126      H3138   1.083       .  S
C3127      C3128   1.353       .  D
C3127      H3139   1.083       .  S
C3128      C3129   1.495       .  S
C3128      H3140   1.084       .  S
C3129      C3130   1.407       .  A
C3129      C3134   1.408       .  A
C3130      C3131   1.400       .  A
C3130      H3141   1.083       .  S
C3131      C3132   1.404       .  A
C3131      H3142   1.083       .  S
C3132      C3133   1.408       .  A
C3133      C3134   1.401       .  A
C3133      H3143   1.083       .  S
C3134      H3144   1.080       .  S
C3145      C3146   1.406       .  A
C3145      C3150   1.407       .  A
C3146      C3147   1.397       .  A
C3146      H3159   1.083   1_655  S
C3147      C3148   1.402       .  A
C3147      H3160   1.083   1_655  S
C3148      C3149   1.409       .  A
C3148      C3151   1.487       .  S
C3149      C3150   1.405       .  A
C3149      H3161   1.083       .  S
C3150      H3162   1.083       .  S
C3151      C3152   1.350       .  D
C3151      H3163   1.082       .  S
C3152      C3153   1.498       .  S
C3152      H3164   1.087       .  S
C3153      C3154   1.406       .  A
C3153      C3158   1.412       .  A
C3154      C3155   1.401       .  A
C3154      H3165   1.084       .  S
C3155      C3156   1.402       .  A
C3155      H3166   1.083       .  S
C3156      C3157   1.402       .  A
C3157      C3158   1.400       .  A
C3157      H3167   1.084       .  S
C3158      H3168   1.079       .  S
C3169      C3170   1.403       .  A
C3169      C3174   1.407       .  A
C3170      C3171   1.396       .  A
C3170      H3183   1.083       .  S
C3171      C3172   1.405       .  A
C3171      H3184   1.083       .  S
C3172      C3173   1.408       .  A
C3172      C3175   1.488       .  S
C3173      C3174   1.403       .  A
C3173      H3185   1.081       .  S
C3174      H3186   1.083       .  S
C3175      C3176   1.351       .  D
C3175      H3187   1.086       .  S
C3176      C3177   1.490       .  S
C3176      H3188   1.085       .  S
C3177      C3178   1.406       .  A
C3177      C3182   1.407       .  A
C3178      C3179   1.403       .  A
C3178      H3189   1.083       .  S
C3179      C3180   1.404       .  A
C3179      H3190   1.083       .  S
C3180      C3181   1.403       .  A
C3181      C3182   1.395       .  A
C3181      H3191   1.083       .  S
C3182      H3192   1.082       .  S
C3193      C3194   1.404       .  A
C3193      C3198   1.405       .  A
C3194      C3195   1.400       .  A
C3194      H3207   1.084       .  S
C3195      C3196   1.404       .  A
C3195      H3208   1.083       .  S
C3196      C3197   1.409       .  A
C3196      C3199   1.493       .  S
C3197      C3198   1.406       .  A
C3197      H3209   1.083       .  S
C3198      H3210   1.083       .  S
C3199      C3200   1.348       .  D
C3199      H3211   1.087       .  S
C3200      C3201   1.491       .  S
C3200      H3212   1.086       .  S
C3201      C3202   1.405   1_455  A
C3201      C3206   1.408       .  A
C3202      C3203   1.404       .  A
C3202      H3213   1.083       .  S
C3203      C3204   1.405       .  A
C3203      H3214   1.083       .  S
C3204      C3205   1.404   1_655  A
C3205      C3206   1.402       .  A
C3205      H3215   1.083       .  S
C3206      H3216   1.083       .  S
C3217      C3218   1.406       .  A
C3217      C3222   1.408       .  A
C3218      C3219   1.399       .  A
C3218      H3231   1.082       .  S
C3219      C3220   1.405       .  A
C3219      H3232   1.084       .  S
C3220      C3221   1.409       .  A
C3220      C3223   1.496       .  S
C3221      C3222   1.406       .  A
C3221      H3233   1.081       .  S
C3222      H3234   1.084   1_455  S
C3223      C3224   1.354       .  D
C3223      H3235   1.083       .  S
C3224      C3225   1.502       .  S
C3224      H3236   1.085       .  S
C3225      C3226   1.411       .  A
C3225      C3230   1.410       .  A
C3226      C3227   1.407       .  A
C3226      H3237   1.083       .  S
C3227      C3228   1.403       .  A
C3227      H3238   1.083       .  S
C3228      C3229   1.403       .  A
C3229      C3230   1.397       .  A
C3229      H3239   1.083       .  S
C3230      H3240   1.079       .  S
