geometry optimzed in LAMMPS
_audit_creation_date              2020-11-30 
_audit_creation_method            'lammps2cif' 
_symmetry_space_group_name_H-M    'P1' 
_symmetry_Int_Tables_number       1 
_symmetry_cell_setting            triclinic 
loop_ 
_symmetry_equiv_pos_as_xyz 
  x,y,z 
_cell_length_a                    27.07316216 
_cell_length_b                    30.076919785419197 
_cell_length_c                    34.63326077415365 
_cell_angle_alpha                 88.74129978584392 
_cell_angle_beta                  90.9708765872244 
_cell_angle_gamma                 90.74063064318872 
loop_ 
_atom_site_label 
_atom_site_type_symbol 
_atom_site_fract_x 
_atom_site_fract_y 
_atom_site_fract_z 
_atom_site_charge 
C1          C  0.93688114  0.25571425  0.12799433     0.88400
C2          C  0.97125245  0.29631149  0.12440053    -0.51800
C3          C  0.00370621  0.29415924  0.09512440     0.11300
C4          C  0.99917504  0.25131259  0.07175376     0.22300
C5          C  0.91196312  0.25178452  0.08798209    -0.52500
C6          C  0.94463053  0.24875321  0.05847774     0.11400
C7          C  0.97142526  0.21533854  0.13147009    -0.52100
C8          C  0.00387516  0.21317986  0.10168936     0.12000
H9          H  0.97044064  0.32436042  0.14363142     0.16500
H10         H  0.02611069  0.24958324  0.04799655     0.02300
H11         H  0.87214666  0.25067548  0.08359728     0.16800
H12         H  0.96945166  0.19037508  0.15454076     0.16600
C13         C  0.58807152  0.09869787  0.39074605     0.88400
C14         C  0.55643927  0.05549841  0.39162354    -0.51800
C15         C  0.52478869  0.05177047  0.36047925     0.11300
C16         C  0.52606073  0.09211514  0.33247120     0.22300
C17         C  0.61303774  0.09891152  0.35090733    -0.52500
C18         C  0.58036461  0.09473734  0.32048716     0.11400
C19         C  0.55062860  0.13637319  0.38778537    -0.52100
C20         C  0.51814046  0.13332332  0.35764679     0.12000
H21         H  0.55929917  0.03015306  0.41433333     0.16500
H22         H  0.49959029  0.08950366  0.30772106     0.02300
H23         H  0.65280489  0.10032409  0.34730474     0.16800
H24         H  0.55033939  0.16392311  0.40756909     0.16600
Zn25       Zn  0.69133999  0.06536566  0.15690476     1.49700
Zn26       Zn  0.61105760  0.02585263  0.21350671     1.49400
Zn27       Zn  0.62459050  0.12938056  0.20410855     1.49100
Zn28       Zn  0.58203955  0.07430888  0.13068220     1.49500
O29         O  0.62590488  0.07347423  0.17631029    -1.82200
O30         O  0.72841912  0.02075761  0.18764937    -0.72800
O31         O  0.58710395  0.05104325  0.26440001    -0.72700
O32         O  0.68583226  0.16499180  0.19423054    -0.72200
O33         O  0.67289447  0.98945147  0.22644086    -0.72800
O34         O  0.72942396  0.12121743  0.15714251    -0.72400
O35         O  0.61509718  0.12091191  0.26167330    -0.73000
O36         O  0.54077743  0.13089434  0.13296667    -0.72400
O37         O  0.55892585  0.98571122  0.18921393    -0.73200
O38         O  0.56893665  0.16725891  0.18439638    -0.72600
O39         O  0.53751478  0.01850680  0.13301343    -0.73000
O40         O  0.62149020  0.07396379  0.07935939    -0.72900
O41         O  0.69357884  0.04965889  0.10203877    -0.72700
C42         C  0.71675572  0.99230047  0.21363217     0.79100
C43         C  0.59539676  0.08847587  0.28017904     0.79500
C44         C  0.72307621  0.15773115  0.17356640     0.78500
C45         C  0.53958965  0.16407194  0.15555215     0.78900
C46         C  0.53334816  0.98659140  0.15784814     0.80000
C47         C  0.66556405  0.06081808  0.07391663     0.79100
C48         C  0.69936104  0.08425006  0.46493983    -0.00600
Zn49       Zn  0.95808655  0.25545187  0.42616511     1.49700
Zn50       Zn  0.88045522  0.20299341  0.37259948     1.49400
Zn51       Zn  0.84548357  0.24771877  0.44837012     1.49100
Zn52       Zn  0.87866043  0.30838571  0.37840342     1.49500
O53         O  0.89073291  0.25308740  0.40625252    -1.82200
O54         O  0.99297317  0.20009834  0.41366617    -0.72800
O55         O  0.81773529  0.16884907  0.38646911    -0.72700
O56         O  0.88310195  0.23858598  0.00951761    -0.72200
O57         O  0.93864963  0.16137261  0.37829129    -0.72800
O58         O  0.96141536  0.25939737  0.48396174    -0.72400
O59         O  0.80300420  0.19289341  0.44529571    -0.73000
O60         O  0.81363017  0.33293786  0.39176023    -0.72400
O61         O  0.87360626  0.22531067  0.31723245    -0.73200
O62         O  0.79642959  0.29622452  0.44636271    -0.72600
O63         O  0.87376841  0.29889420  0.32245824    -0.73000
O64         O  0.93321517  0.35332692  0.38602273    -0.72900
O65         O  0.99446878  0.30836809  0.40423216    -0.72700
C66         C  0.98055545  0.16554108  0.39528768     0.79100
C67         C  0.79290452  0.16728074  0.41740522     0.79500
C68         C  0.92906436  0.24229726  0.01789151     0.78500
C69         C  0.78624803  0.32545151  0.42056464     0.78900
C70         C  0.87088570  0.26439016  0.30223718     0.80000
C71         C  0.97879777  0.34605184  0.39245076     0.79100
C72         C  0.82732381  0.23825478  0.19896896    -0.00600
C73         C  0.43658376  0.23790342  0.11399968     0.88400
C74         C  0.47138324  0.19845819  0.11750642    -0.51800
C75         C  0.50345852  0.19995968  0.14795500     0.11300
C76         C  0.49781872  0.24185161  0.17272722     0.22300
C77         C  0.41090213  0.23931520  0.15349544    -0.52500
C78         C  0.44306716  0.24189024  0.18446777     0.11400
C79         C  0.47070993  0.27947153  0.11314512    -0.52100
C80         C  0.50242959  0.28206747  0.14440332     0.12000
H81         H  0.47061472  0.17125356  0.09735495     0.16500
H82         H  0.52411810  0.24315253  0.19763132     0.02300
H83         H  0.37103450  0.23933874  0.15644186     0.16800
H84         H  0.46890507  0.30493333  0.09047117     0.16600
C85         C  0.08909448  0.09687004  0.36453743     0.88400
C86         C  0.05064426  0.13363113  0.36287290    -0.52200
C87         C  0.01749310  0.13111623  0.39157388     0.11300
C88         C  0.02544024  0.09221860  0.42024916     0.22300
C89         C  0.11286805  0.09951923  0.40526051    -0.52500
C90         C  0.07928281  0.09633063  0.43454462     0.11400
C91         C  0.05868275  0.05294813  0.36575273    -0.52100
C92         C  0.02565576  0.05081413  0.39543997     0.12000
H93         H  0.04990133  0.16012868  0.34100913     0.16500
H94         H  0.99783540  0.09053232  0.44364264     0.02300
H95         H  0.15247900  0.10211394  0.41034638     0.16800
H96         H  0.06244398  0.02664072  0.34507779     0.16600
Zn97       Zn  0.14197981  0.13990080  0.10466772     1.49700
Zn98       Zn  0.05451755  0.08681234  0.05716377     1.49400
Zn99       Zn  0.16759683  0.07961787  0.03450481     1.49100
Zn100      Zn  0.12711838  0.03642210  0.11535045     1.49500
O101        O  0.12227179  0.08586255  0.07763721    -1.82200
O102        O  0.08184715  0.17903714  0.10872298    -0.72800
O103        O  0.05459247  0.08693278  0.99807160    -0.72700
O104        O  0.21104498  0.13349478  0.02642596    -0.72200
O105        O  0.02200748  0.14290117  0.07627081    -0.72800
O106        O  0.19687258  0.17476100  0.07729405    -0.72400
O107        O  0.13764290  0.08617450  0.48604833    -0.73000
O108        O  0.18722828  0.00234301  0.10255885    -0.72400
O109        O  0.01534410  0.03045526  0.07335476    -0.73200
O110        O  0.21313656  0.02920994  0.04580402    -0.72600
O111        O  0.06765252  0.99404708  0.11245952    -0.73000
O112        O  0.14088273  0.05627427  0.17060963    -0.72900
O113        O  0.16932937  0.12458595  0.15785045    -0.72700
C114        C  0.03746965  0.17594430  0.09593408     0.79100
C115        C  0.09288399  0.09270598  0.47607037     0.79500
C116        C  0.21980663  0.16778777  0.04622283     0.78500
C117        C  0.21728707  0.00263396  0.07474371     0.78900
C118        C  0.02626625  0.99652599  0.09446013     0.80000
C119        C  0.16404468  0.09136866  0.18086111     0.79100
C120        C  0.19718910  0.08424823  0.29096827    -0.00600
Zn121      Zn  0.46162105  0.25872807  0.30949378     1.49700
Zn122      Zn  0.34555146  0.25378483  0.28493936     1.49400
Zn123      Zn  0.38337268  0.21256377  0.36733572     1.49100
Zn124      Zn  0.38366298  0.31867284  0.35350670     1.49500
O125        O  0.39338171  0.26098585  0.32868616    -1.82200
O126        O  0.46085521  0.25531797  0.25082908    -0.72800
O127        O  0.29636243  0.20210117  0.29605236    -0.72700
O128        O  0.44100667  0.16874525  0.36698334    -0.72200
O129        O  0.38205972  0.24358484  0.23417791    -0.72800
O130        O  0.49507530  0.20170186  0.32762295    -0.72400
O131        O  0.32099484  0.17746479  0.35422988    -0.73000
O132        O  0.37023660  0.31003537  0.41093950    -0.72400
O133        O  0.30563503  0.31049508  0.27679226    -0.73200
O134        O  0.37547389  0.23708450  0.42188957    -0.72600
O135        O  0.32713779  0.35288760  0.32652172    -0.73000
O136        O  0.44660913  0.35678746  0.35183544    -0.72900
O137        O  0.50332663  0.31287536  0.32748826    -0.72700
C138        C  0.42762727  0.24709337  0.22528419     0.79100
C139        C  0.29132066  0.17578129  0.32530524     0.79500
C140        C  0.48227372  0.16924215  0.34964702     0.78500
C141        C  0.36965684  0.27646488  0.43408745     0.78900
C142        C  0.30137224  0.34596167  0.29591101     0.80000
C143        C  0.49117432  0.34938412  0.34279395     0.79100
C144        C  0.32778748  0.25390638  0.03858065    -0.00600
C145        C  0.36129741  0.28430649  0.47582795    -0.14500
C146        C  0.34569319  0.25196478  0.50052802    -0.29700
H147        H  0.36373240  0.31832941  0.48564187     0.14500
H148        H  0.34185525  0.21844143  0.48960842     0.15100
C149        C  0.22424822  0.12971118  0.29476752    -0.14500
C150        C  0.25252925  0.14017848  0.32584275    -0.29700
H151        H  0.22365686  0.15301011  0.27035895     0.14500
H152        H  0.25242600  0.11755433  0.35074651     0.15100
C153        C  0.23225649  0.04475523  0.29162357    -0.14500
C154        C  0.28159083  0.04777932  0.29523590    -0.29700
H155        H  0.21532326  0.01172148  0.29221617     0.14500
H156        H  0.30073204  0.07954646  0.29467880     0.15100
C157        C  0.18969274  0.09276148  0.21873847    -0.14500
C158        C  0.16812873  0.08274795  0.25264323    -0.29700
H159        H  0.22801693  0.10389221  0.21864128     0.14500
H160        H  0.12913455  0.07359909  0.25261630     0.15100
C161        C  0.29546010  0.21455245  0.05230648    -0.14500
C162        C  0.25577375  0.20085259  0.03150329    -0.29700
H163        H  0.30246704  0.19933995  0.08061936     0.14500
H164        H  0.24939670  0.21449054  0.00256951     0.15100
C165        C  0.29428059  0.29408682  0.03604912    -0.14500
C166        C  0.27068546  0.30664548  0.06758605    -0.29700
H167        H  0.28651384  0.31065143  0.00843541     0.14500
H168        H  0.27701423  0.28871327  0.09481147     0.15100
C169        C  0.12431482  0.10318220  0.33116072    -0.14500
C170        C  0.16228237  0.07641040  0.32483501    -0.29700
H171        H  0.11877264  0.13118706  0.31122892     0.14500
H172        H  0.16807448  0.04830959  0.34465379     0.15100
C173        C  0.40176172  0.23249585  0.07951733    -0.14500
C174        C  0.36893503  0.26328680  0.06830162    -0.29700
H175        H  0.40152580  0.20121870  0.06435055     0.14500
H176        H  0.36988216  0.29490469  0.08297105     0.15100
C177        C  0.85976617  0.27087151  0.26099171    -0.14500
C178        C  0.85462358  0.23638040  0.23755620    -0.29700
H179        H  0.85014201  0.30415638  0.25101990     0.14500
H180        H  0.86784184  0.20400205  0.24750188     0.15100
C181        C  0.73548656  0.04573477  0.46642488    -0.14500
C182        C  0.75625208  0.03139922  0.43420754    -0.29700
H183        H  0.74781167  0.03206358  0.49424314     0.14500
H184        H  0.72253614  0.36227642  0.39807224     0.15100
C185        C  0.72944940  0.12649496  0.45497251    -0.14500
C186        C  0.75245306  0.13408521  0.42116552    -0.29700
H187        H  0.73761333  0.14944432  0.47810596     0.14500
H188        H  0.74384332  0.11406101  0.39633245     0.15100
C189        C  0.68828533  0.06064767  0.03535065    -0.14500
C190        C  0.66412144  0.06443201  0.00123467    -0.29700
H191        H  0.72825909  0.05766910  0.03522050     0.14500
H192        H  0.62405158  0.06645093  0.00100946     0.15100
C193        C  0.75823335  0.29133720  0.21258004    -0.14500
C194        C  0.79805647  0.28118978  0.19143897    -0.29700
H195        H  0.74870463  0.27026970  0.23731225     0.14500
H196        H  0.80654879  0.30142866  0.16595571     0.15100
C197        C  0.76078198  0.19187487  0.16950782    -0.14500
C198        C  0.79059517  0.20012530  0.19957541    -0.29700
H199        H  0.76421328  0.21020457  0.14228755     0.14500
H200        H  0.78623975  0.18004814  0.22592995     0.15100
C201        C  0.62362025  0.10505646  0.42484114    -0.14500
C202        C  0.65822871  0.07527742  0.43493883    -0.29700
H203        H  0.62246536  0.13583344  0.44065374     0.14500
H204        H  0.65826590  0.04424343  0.41943800     0.15100
C205        C  0.90119972  0.26046831  0.16058901    -0.14500
C206        C  0.86451052  0.23114667  0.16736632    -0.29700
H207        H  0.90418506  0.28972719  0.17841387     0.14500
H208        H  0.86130767  0.20193256  0.14947441     0.15100
C209        C  0.92143315  0.25140625  0.61844199     0.88400
C210        C  0.95615372  0.29216086  0.62305858    -0.51800
C211        C  0.99320261  0.29412918  0.59649256     0.11300
C212        C  0.99193919  0.25558508  0.56805730     0.22300
C213        C  0.90318574  0.25435857  0.57658174    -0.52500
C214        C  0.93951970  0.25612836  0.55009817     0.11400
C215        C  0.95540872  0.21072747  0.62001828    -0.52100
C216        C  0.99266500  0.21332087  0.59383985     0.12000
H217        H  0.95123255  0.31738832  0.64455925     0.16500
H218        H  0.02191308  0.25721523  0.54652163     0.02300
H219        H  0.86423374  0.25401196  0.56841579     0.16800
H220        H  0.95064979  0.18275418  0.64002811     0.16600
C221        C  0.58787037  0.09351177  0.88672166     0.88400
C222        C  0.55239956  0.05293690  0.88744977    -0.51800
C223        C  0.52072469  0.05167419  0.85631122     0.11300
C224        C  0.52665422  0.09113162  0.82785948     0.22300
C225        C  0.61359654  0.09152481  0.84740097    -0.52500
C226        C  0.58134317  0.08962457  0.81665320     0.11400
C227        C  0.55435194  0.13387558  0.88332370    -0.52100
C228        C  0.52235806  0.13278596  0.85278042     0.12000
H229        H  0.55269136  0.02746786  0.91017180     0.16500
H230        H  0.50043219  0.09030192  0.80283812     0.02300
H231        H  0.65342201  0.09050038  0.84430994     0.16800
H232        H  0.55543804  0.16101879  0.90354237     0.16600
Zn233      Zn  0.69306315  0.06760690  0.64896544     1.49700
Zn234      Zn  0.61545530  0.02332709  0.70887526     1.49400
Zn235      Zn  0.62411245  0.12803389  0.70071194     1.49100
Zn236      Zn  0.57563432  0.07259026  0.63172754     1.49500
O237        O  0.62733199  0.07260132  0.67234421    -1.82200
O238        O  0.73031439  0.01474107  0.67250346    -0.72800
O239        O  0.59424239  0.04605202  0.76133189    -0.72700
O240        O  0.68497809  0.16431591  0.69258315    -0.72200
O241        O  0.67805957  0.98747695  0.71631298    -0.72800
O242        O  0.73487581  0.12377695  0.65743002    -0.72400
O243        O  0.61186313  0.11848016  0.75755773    -0.73000
O244        O  0.53594179  0.12941986  0.63271414    -0.72400
O245        O  0.56221606  0.98177760  0.68753543    -0.73200
O246        O  0.56966123  0.16702943  0.68114196    -0.72600
O247        O  0.53103690  0.01858091  0.63656623    -0.73000
O248        O  0.60452390  0.06725946  0.57879487    -0.72900
O249        O  0.68516868  0.06016625  0.59071476    -0.72700
C250        C  0.71960629  0.98685316  0.69950230     0.79100
C251        C  0.59709583  0.08431547  0.77651789     0.79500
C252        C  0.72519046  0.15939890  0.67493535     0.78500
C253        C  0.53820647  0.16373496  0.65377512     0.78900
C254        C  0.53179618  0.98454365  0.65906096     0.80000
C255        C  0.64825791  0.06150952  0.56728143     0.79100
C256        C  0.69195410  0.06534048  0.96291541    -0.00600
Zn257      Zn  0.96041293  0.23667364  0.93399576     1.49700
Zn258      Zn  0.87873185  0.18990031  0.88076884     1.49400
Zn259      Zn  0.84523365  0.23353815  0.95898438     1.49100
Zn260      Zn  0.88438863  0.29436453  0.88962958     1.49500
O261        O  0.89205430  0.23760557  0.91632197    -1.82200
O262        O  0.99374229  0.18056377  0.91693000    -0.72800
O263        O  0.81678137  0.15583814  0.89663816    -0.72700
O264        O  0.88230239  0.24985991  0.49842645    -0.72200
O265        O  0.93692579  0.14783089  0.87941822    -0.72800
O266        O  0.96211029  0.24103364  0.99213322    -0.72400
O267        O  0.80121623  0.17760000  0.95621640    -0.73000
O268        O  0.82008186  0.32024738  0.90202199    -0.72400
O269        O  0.86916510  0.21495331  0.82688691    -0.73200
O270        O  0.79664579  0.28403982  0.95544365    -0.72600
O271        O  0.88345301  0.28748020  0.83246570    -0.73000
O272        O  0.93857902  0.33833782  0.90154272    -0.72900
O273        O  0.99882568  0.29021244  0.91317710    -0.72700
C274        C  0.97989720  0.14907960  0.89501933     0.79100
C275        C  0.79153846  0.15294662  0.92741021     0.79500
C276        C  0.92736363  0.25533211  0.50859130     0.78500
C277        C  0.79012945  0.31401447  0.92941419     0.78900
C278        C  0.87415334  0.25384184  0.81197491     0.80000
C279        C  0.98414882  0.32944363  0.90502368     0.79100
C280        C  0.83236027  0.23772484  0.70606645    -0.00600
C281        C  0.43874484  0.24201218  0.61303477     0.88400
C282        C  0.47173781  0.20113694  0.61569733    -0.51800
C283        C  0.50399606  0.20089480  0.64614325     0.11300
C284        C  0.50069883  0.24237818  0.67142446     0.22300
C285        C  0.41368772  0.24333295  0.65275481    -0.52500
C286        C  0.44639799  0.24398505  0.68346154     0.11400
C287        C  0.47470492  0.28219732  0.61260945    -0.52100
C288        C  0.50687516  0.28274875  0.64366296     0.12000
H289        H  0.46949867  0.17429173  0.59522226     0.16500
H290        H  0.52720397  0.24218137  0.69624120     0.02300
H291        H  0.37391076  0.24442686  0.65608806     0.16800
H292        H  0.47364705  0.30834009  0.59049879     0.16600
C293        C  0.08272828  0.07227786  0.86199524     0.88400
C294        C  0.04707857  0.11186007  0.85922857    -0.52200
C295        C  0.01418575  0.11245016  0.88881273     0.11300
C296        C  0.01936513  0.07356083  0.91786191     0.22300
C297        C  0.10684874  0.07513351  0.90258206    -0.52500
C298        C  0.07342060  0.07594172  0.93194856     0.11400
C299        C  0.04939063  0.03084923  0.86444098    -0.52100
C300        C  0.01647835  0.03158938  0.89351312     0.12000
H301        H  0.04869466  0.13756448  0.83675769     0.16500
H302        H  0.99193566  0.07385668  0.94136405     0.02300
H303        H  0.14656628  0.07630791  0.90749163     0.16800
H304        H  0.05116686  0.00337034  0.84466715     0.16600
Zn305      Zn  0.13656729  0.15132059  0.60542806     1.49700
Zn306      Zn  0.05890858  0.08983209  0.55971752     1.49400
Zn307      Zn  0.17128198  0.08623724  0.53828379     1.49100
Zn308      Zn  0.13667778  0.04707539  0.61968601     1.49500
O309        O  0.12579500  0.09402611  0.58096188    -1.82200
O310        O  0.07520043  0.18884344  0.59843225    -0.72800
O311        O  0.05922245  0.09548937  0.50116257    -0.72700
O312        O  0.21627119  0.13808110  0.53395605    -0.72200
O313        O  0.01743442  0.14051270  0.57862925    -0.72800
O314        O  0.19497015  0.18370159  0.58055435    -0.72400
O315        O  0.13217234  0.07169631  0.98362246    -0.73000
O316        O  0.19782663  0.01406438  0.60782041    -0.72400
O317        O  0.02816431  0.03010715  0.57459590    -0.73200
O318        O  0.21411332  0.03267813  0.54674006    -0.72600
O319        O  0.08122932  0.00193967  0.61825172    -0.73000
O320        O  0.14442909  0.07053597  0.67387332    -0.72900
O321        O  0.14794635  0.14370144  0.66376021    -0.72700
C322        C  0.03034349  0.17892162  0.59033395     0.79100
C323        C  0.08748969  0.07835776  0.97338725     0.79500
C324        C  0.22158070  0.17409626  0.55188151     0.78500
C325        C  0.22255992  0.00954854  0.57732163     0.78900
C326        C  0.04139535  0.99937684  0.59838016     0.80000
C327        C  0.14925854  0.10982264  0.68657908     0.79100
C328        C  0.19499336  0.09219931  0.79339315    -0.00600
Zn329      Zn  0.46486953  0.25864250  0.80866509     1.49700
Zn330      Zn  0.35235643  0.24949356  0.78430197     1.49400
Zn331      Zn  0.38904927  0.20923587  0.86605034     1.49100
Zn332      Zn  0.38338387  0.31340356  0.85403290     1.49500
O333        O  0.39770622  0.25790528  0.82827776    -1.82200
O334        O  0.46476756  0.25726976  0.74979133    -0.72800
O335        O  0.30535979  0.19872578  0.79481891    -0.72700
O336        O  0.44540082  0.16619675  0.86288921    -0.72200
O337        O  0.38696179  0.24107357  0.73364893    -0.72800
O338        O  0.49980464  0.20247763  0.82581389    -0.72400
O339        O  0.32639546  0.17588339  0.85432834    -0.73000
O340        O  0.37236248  0.30324438  0.91114188    -0.72400
O341        O  0.31012238  0.30279975  0.77650444    -0.73200
O342        O  0.38358332  0.23085917  0.92114905    -0.72600
O343        O  0.32349359  0.34348949  0.82875795    -0.73000
O344        O  0.44301358  0.35456880  0.85257632    -0.72900
O345        O  0.50253387  0.31335203  0.82836024    -0.72700
C346        C  0.43183073  0.24759811  0.72441850     0.79100
C347        C  0.29821890  0.17415703  0.82466017     0.79500
C348        C  0.48688776  0.16864142  0.84613202     0.78500
C349        C  0.37533008  0.26949369  0.93384019     0.78900
C350        C  0.30054765  0.33596745  0.79700758     0.80000
C351        C  0.48803388  0.34885873  0.84404026     0.79100
C352        C  0.32688703  0.26041309  0.54142900    -0.00600
C353        C  0.36780855  0.27619902  0.97554099    -0.14500
C354        C  0.34874912  0.24418060  0.99888114    -0.29700
H355        H  0.37173290  0.30984071  0.98608088     0.14500
H356        H  0.34299274  0.21114056  0.98734013     0.15100
C357        C  0.23092502  0.13157746  0.79329249    -0.14500
C358        C  0.25696513  0.14211331  0.82529248    -0.29700
H359        H  0.23895361  0.14898548  0.76624322     0.14500
H360        H  0.25018363  0.12394026  0.85220844     0.15100
C361        C  0.22444597  0.05186946  0.80789043    -0.14500
C362        C  0.26365544  0.03765242  0.78859750    -0.29700
H363        H  0.21617881  0.03657932  0.83584357     0.14500
H364        H  0.27144952  0.05138780  0.76004045     0.15100
C365        C  0.15791219  0.11668420  0.72851063    -0.14500
C366        C  0.17499707  0.08403710  0.75238763    -0.29700
H367        H  0.15507687  0.15024392  0.73915531     0.14500
H368        H  0.17913261  0.05101452  0.74077790     0.15100
C369        C  0.29765869  0.21948796  0.55534861    -0.14500
C370        C  0.25650867  0.20680752  0.53628846    -0.29700
H371        H  0.30723970  0.20305858  0.58270833     0.14500
H372        H  0.24699016  0.22236758  0.50858703     0.15100
C373        C  0.29079271  0.29895507  0.54133488    -0.14500
C374        C  0.26371013  0.30692196  0.57275351    -0.29700
H375        H  0.28284128  0.31702674  0.51448610     0.14500
H376        H  0.27048778  0.28800401  0.59938554     0.15100
C377        C  0.11893166  0.06915170  0.82928071    -0.14500
C378        C  0.15303589  0.10067276  0.82114272    -0.29700
H379        H  0.11930911  0.03863003  0.81303525     0.14500
H380        H  0.15268014  0.13148274  0.83698273     0.15100
C381        C  0.40325641  0.23898407  0.57879283    -0.14500
C382        C  0.36925826  0.26981710  0.56990359    -0.29700
H383        H  0.40288494  0.20871646  0.56217764     0.14500
H384        H  0.36955409  0.30043205  0.58604435     0.15100
C385        C  0.86771491  0.26074570  0.77008776    -0.14500
C386        C  0.84487447  0.23002018  0.74846225    -0.29700
H387        H  0.87849048  0.29260596  0.75719274     0.14500
H388        H  0.83274757  0.19904096  0.76234433     0.15100
C389        C  0.72467934  0.02432928  0.96090878    -0.14500
C390        C  0.74828283  0.01486126  0.92835437    -0.29700
H391        H  0.73155409  0.00383444  0.98662486     0.14500
H392        H  0.73373189  0.35413038  0.90143483     0.15100
C393        C  0.72563004  0.10720674  0.96058866    -0.14500
C394        C  0.75063830  0.11959517  0.92853557    -0.29700
H395        H  0.73263396  0.12561965  0.98682017     0.14500
H396        H  0.74201209  0.10376304  0.90147045     0.15100
C397        C  0.65657367  0.05662436  0.52563934    -0.14500
C398        C  0.67872735  0.08959510  0.50542741    -0.29700
H399        H  0.64801740  0.02502494  0.51234318     0.14500
H400        H  0.68556083  0.12058992  0.52036474     0.15100
C401        C  0.75886124  0.28658957  0.71889387    -0.14500
C402        C  0.80230424  0.28062621  0.70118903    -0.29700
H403        H  0.74561554  0.26131347  0.73923552     0.14500
H404        H  0.81527710  0.30617946  0.68097412     0.15100
C405        C  0.75943979  0.19751599  0.67427569    -0.14500
C406        C  0.80369417  0.19628273  0.69244721    -0.29700
H407        H  0.74356481  0.22885404  0.66482842     0.14500
H408        H  0.81848743  0.16391731  0.70074006     0.15100
C409        C  0.62273612  0.09629651  0.92113995    -0.14500
C410        C  0.65445671  0.06368760  0.92958522    -0.29700
H411        H  0.62256671  0.12545810  0.93912583     0.14500
H412        H  0.65334193  0.03473787  0.91127759     0.15100
C413        C  0.87746556  0.24851375  0.64471786    -0.14500
C414        C  0.87984389  0.24207984  0.68311554    -0.29700
H415        H  0.84086201  0.25053443  0.63138577     0.14500
H416        H  0.91572708  0.23953801  0.69751300     0.15100
C417        C  0.93590377  0.56852677  0.13216795     0.88400
C418        C  0.96397293  0.61344142  0.13353494    -0.51800
C419        C  0.99601168  0.62025023  0.10387851     0.11300
C420        C  0.99726227  0.58121648  0.07560953     0.22300
C421        C  0.91108043  0.56756200  0.09176413    -0.52500
C422        C  0.94309912  0.57372340  0.06188977     0.11400
C423        C  0.97637752  0.53361228  0.13096049    -0.52100
C424        C  0.00853305  0.54031970  0.10156164     0.12000
H425        H  0.95955774  0.63725498  0.15631037     0.16500
H426        H  0.02386366  0.58627966  0.05178930     0.02300
H427        H  0.87182727  0.56121530  0.08734508     0.16800
H428        H  0.97865693  0.50526366  0.15088109     0.16600
C429        C  0.59849701  0.42676996  0.37740520     0.88400
C430        C  0.56471049  0.38439562  0.37766891    -0.51800
C431        C  0.52885302  0.38505470  0.34894428     0.11300
C432        C  0.53037221  0.42729257  0.32317182     0.22300
C433        C  0.61886675  0.42936268  0.33652156    -0.52500
C434        C  0.58355034  0.42897393  0.30825515     0.11400
C435        C  0.56299630  0.46558982  0.37957042    -0.52100
C436        C  0.52765132  0.46616057  0.35139742     0.12000
H437        H  0.56816186  0.35679863  0.39814121     0.16500
H438        H  0.50164374  0.42802443  0.29987054     0.02300
H439        H  0.65813058  0.42940524  0.33040378     0.16800
H440        H  0.56655040  0.49148919  0.40089264     0.16600
Zn441      Zn  0.69586357  0.40181446  0.14590809     1.49700
Zn442      Zn  0.61723179  0.36116244  0.20320065     1.49400
Zn443      Zn  0.63262159  0.46680567  0.19409613     1.49100
Zn444      Zn  0.57995616  0.41095044  0.12604816     1.49500
O445        O  0.63081032  0.41033413  0.16726685    -1.82200
O446        O  0.73394194  0.35359831  0.17349474    -0.72800
O447        O  0.59186611  0.38584505  0.25285584    -0.72700
O448        O  0.69934086  0.49790016  0.18910522    -0.72200
O449        O  0.67970214  0.32552313  0.21506453    -0.72800
O450        O  0.73843838  0.45777113  0.14625852    -0.72400
O451        O  0.61601172  0.45706918  0.24986812    -0.73000
O452        O  0.54080351  0.46923845  0.12800686    -0.72400
O453        O  0.56623796  0.31836340  0.18062239    -0.73200
O454        O  0.57998883  0.50818999  0.17339134    -0.72600
O455        O  0.53489612  0.35532107  0.12985168    -0.73000
O456        O  0.61219530  0.40396387  0.07395051    -0.72900
O457        O  0.68742853  0.38179789  0.09239561    -0.72700
C458        C  0.72243443  0.32573962  0.20006042     0.79100
C459        C  0.59696009  0.42395996  0.26791136     0.79500
C460        C  0.73621867  0.49166110  0.16747173     0.78500
C461        C  0.54568007  0.50439249  0.14809319     0.78900
C462        C  0.53623450  0.32068458  0.15188977     0.80000
C463        C  0.65392412  0.38702562  0.06674247     0.79100
C464        C  0.69764219  0.40905098  0.46152683    -0.00600
Zn465      Zn  0.96175409  0.58414516  0.43238179     1.49700
Zn466      Zn  0.88325869  0.53539417  0.37556472     1.49400
Zn467      Zn  0.84870430  0.56843869  0.45608000     1.49100
Zn468      Zn  0.87814052  0.64044474  0.39078510     1.49500
O469        O  0.89342199  0.58210192  0.41335187    -1.82200
O470        O  0.99817455  0.52984899  0.41445759    -0.72800
O471        O  0.82254290  0.49647298  0.38906052    -0.72700
O472        O  0.88167321  0.56882812  0.01112685    -0.72200
O473        O  0.94400956  0.49653234  0.37490072    -0.72800
O474        O  0.96153898  0.58410794  0.49134896    -0.72400
O475        O  0.80963623  0.51250227  0.45028066    -0.73000
O476        O  0.81813285  0.66549310  0.41644042    -0.72400
O477        O  0.87234182  0.56278233  0.32212624    -0.73200
O478        O  0.79591257  0.61255807  0.45868140    -0.72600
O479        O  0.86285247  0.63458022  0.33405243    -0.73000
O480        O  0.93641471  0.68380889  0.39377610    -0.72900
O481        O  0.99828394  0.64035660  0.41322312    -0.72700
C482        C  0.98625280  0.49856534  0.39168786     0.79100
C483        C  0.79902469  0.49030487  0.42044038     0.79500
C484        C  0.92759844  0.57070417  0.02043246     0.78500
C485        C  0.78888568  0.64978661  0.44203465     0.78900
C486        C  0.86338475  0.60252814  0.31067768     0.80000
C487        C  0.98226596  0.67771953  0.40054902     0.79100
C488        C  0.82580922  0.58465240  0.20302030    -0.00600
C489        C  0.44122428  0.58190292  0.11361014     0.88400
C490        C  0.47598870  0.54212399  0.11344938    -0.51800
C491        C  0.51029929  0.54150636  0.14256897     0.11300
C492        C  0.50682922  0.58172553  0.16959628     0.22300
C493        C  0.41879682  0.58055061  0.15440794    -0.52500
C494        C  0.45335045  0.58113202  0.18395061     0.11400
C495        C  0.47540524  0.62321324  0.11323616    -0.52100
C496        C  0.50934086  0.62353199  0.14304153     0.12000
H497        H  0.47325396  0.51614232  0.09218358     0.16500
H498        H  0.53486041  0.58144039  0.19337263     0.02300
H499        H  0.37928029  0.58064048  0.15928333     0.16800
H500        H  0.47162844  0.65043058  0.09231261     0.16600
C501        C  0.08579885  0.41893142  0.35732218     0.88400
C502        C  0.05458533  0.46150396  0.35693436    -0.52200
C503        C  0.02126906  0.46234117  0.38620444     0.11300
C504        C  0.02184651  0.42094089  0.41281912     0.22300
C505        C  0.10924577  0.41603818  0.39823216    -0.52500
C506        C  0.07556693  0.41701955  0.42740597     0.11400
C507        C  0.04795632  0.38055413  0.35680262    -0.52100
C508        C  0.01471712  0.38178806  0.38574852     0.12000
H509        H  0.05822907  0.48815015  0.33546712     0.16500
H510        H  0.99418673  0.42154815  0.43614513     0.02300
H511        H  0.14875509  0.41322971  0.40348004     0.16800
H512        H  0.04803179  0.35406092  0.33596976     0.16600
Zn513      Zn  0.15016442  0.47208407  0.10755891     1.49700
Zn514      Zn  0.06689147  0.42041385  0.05500236     1.49400
Zn515      Zn  0.17934217  0.41823758  0.03160785     1.49100
Zn516      Zn  0.14087315  0.36712310  0.10760205     1.49500
O517        O  0.13432310  0.42031462  0.07544238    -1.82200
O518        O  0.08909553  0.51095785  0.10817848    -0.72800
O519        O  0.06531242  0.41977252  0.99701917    -0.72700
O520        O  0.21757901  0.47560215  0.02659641    -0.72200
O521        O  0.03278524  0.47475670  0.07240532    -0.72800
O522        O  0.20654562  0.50926851  0.08249745    -0.72400
O523        O  0.13332205  0.40552933  0.47916011    -0.73000
O524        O  0.20070936  0.33610784  0.09378503    -0.72400
O525        O  0.02776675  0.36569490  0.07197535    -0.73200
O526        O  0.22793201  0.36839172  0.03961966    -0.72600
O527        O  0.08406738  0.32407483  0.10229381    -0.73000
O528        O  0.15106604  0.38009613  0.16340559    -0.72900
O529        O  0.16635678  0.45283094  0.16456522    -0.72700
C530        C  0.04587359  0.50736121  0.09317913     0.79100
C531        C  0.08912343  0.41452162  0.46908076     0.79500
C532        C  0.22649878  0.50745707  0.04929128     0.78500
C533        C  0.23131738  0.33908526  0.06662949     0.78900
C534        C  0.04065464  0.32951503  0.08877118     0.80000
C535        C  0.16314478  0.41474594  0.18175839     0.79100
C536        C  0.20042107  0.43752758  0.28995153    -0.00600
Zn537      Zn  0.47505150  0.59471540  0.31012195     1.49700
Zn538      Zn  0.36314475  0.58760562  0.28677028     1.49400
Zn539      Zn  0.39790787  0.54623021  0.36917953     1.49100
Zn540      Zn  0.39573817  0.64986948  0.35757572     1.49500
O541        O  0.40835918  0.59469641  0.33106025    -1.82200
O542        O  0.47443168  0.59425043  0.25043792    -0.72800
O543        O  0.31527405  0.53796226  0.29731111    -0.72700
O544        O  0.45391940  0.50281220  0.36627345    -0.72200
O545        O  0.39633115  0.57789106  0.23581875    -0.72800
O546        O  0.50662569  0.53669005  0.32597666    -0.72400
O547        O  0.33597520  0.51232138  0.35601570    -0.73000
O548        O  0.37913482  0.64024252  0.41414502    -0.72400
O549        O  0.32276645  0.64186238  0.27859305    -0.73200
O550        O  0.38868970  0.56775852  0.42433979    -0.72600
O551        O  0.34002480  0.68254148  0.33027367    -0.73000
O552        O  0.45679885  0.68834623  0.35807000    -0.72900
O553        O  0.51520829  0.64820078  0.33111008    -0.72700
C554        C  0.44078271  0.58440284  0.22558622     0.79100
C555        C  0.30795599  0.51200607  0.32622659     0.79500
C556        C  0.49383877  0.50359265  0.34727972     0.78500
C557        C  0.37936845  0.60634174  0.43680277     0.78900
C558        C  0.31603689  0.67575791  0.29889633     0.80000
C559        C  0.50144310  0.68293361  0.34851880     0.79100
C560        C  0.32624887  0.60182735  0.04459306    -0.00600
C561        C  0.36719026  0.61266046  0.47803632    -0.14500
C562        C  0.34829954  0.57954585  0.50032425    -0.29700
H563        H  0.36865161  0.64622579  0.48898789     0.14500
H564        H  0.34531625  0.54659586  0.48809730     0.15100
C565        C  0.23843965  0.47483997  0.29330040    -0.14500
C566        C  0.26662715  0.48002004  0.32524045    -0.29700
H567        H  0.24510456  0.49640166  0.26822733     0.14500
H568        H  0.26088602  0.45839341  0.35036779     0.15100
C569        C  0.22736445  0.39360305  0.29947405    -0.14500
C570        C  0.26815511  0.38123061  0.28077711    -0.29700
H571        H  0.21648978  0.37424676  0.32490210     0.14500
H572        H  0.27956281  0.39970962  0.25508320     0.15100
C573        C  0.17640501  0.40835660  0.22329612    -0.14500
C574        C  0.17799315  0.44131787  0.24889928    -0.29700
H575        H  0.18605930  0.37488717  0.23267487     0.14500
H576        H  0.16449412  0.47377168  0.23950285     0.15100
C577        C  0.29978933  0.55730595  0.05385747    -0.14500
C578        C  0.25825980  0.54440446  0.03516923    -0.29700
H579        H  0.31161233  0.53789684  0.07914995     0.14500
H580        H  0.24625072  0.56246671  0.00925116     0.15100
C581        C  0.28814228  0.63811403  0.04808763    -0.14500
C582        C  0.25995862  0.64135078  0.07955539    -0.29700
H583        H  0.28103587  0.66008084  0.02328426     0.14500
H584        H  0.26615450  0.61922265  0.10435029     0.15100
C585        C  0.12236444  0.41572188  0.32467527    -0.14500
C586        C  0.16012147  0.44464692  0.31960730    -0.29700
H587        H  0.11920175  0.38763571  0.30552119     0.14500
H588        H  0.16308105  0.47284684  0.33868332     0.15100
C589        C  0.40389344  0.57986079  0.08040235    -0.14500
C590        C  0.36744704  0.60935752  0.07463280    -0.29700
H591        H  0.40519903  0.55175015  0.06125139     0.14500
H592        H  0.36574324  0.63758552  0.09364367     0.15100
C593        C  0.85051583  0.61216313  0.26980456    -0.14500
C594        C  0.85222671  0.58116004  0.24235839    -0.29700
H595        H  0.83589445  0.64488403  0.26308137     0.14500
H596        H  0.86989456  0.54969455  0.24949669     0.15100
C597        C  0.73163044  0.36950751  0.45842933    -0.14500
C598        C  0.74217680  0.35202760  0.42431532    -0.29700
H599        H  0.75789276  0.36326541  0.48194814     0.14500
H600        H  0.71339381  0.65797081  0.46417558     0.15100
C601        C  0.73036756  0.45047706  0.45402281    -0.14500
C602        C  0.75899311  0.45631217  0.42243875    -0.29700
H603        H  0.73480871  0.47397726  0.47729792     0.14500
H604        H  0.75446635  0.43460738  0.39805888     0.15100
C605        C  0.66576136  0.37329384  0.02788941    -0.14500
C606        C  0.66453017  0.40271599  0.99835634    -0.29700
H607        H  0.68429535  0.34178013  0.02580070     0.14500
H608        H  0.64531445  0.43380463  0.00241793     0.15100
C609        C  0.75174383  0.63083919  0.21972133    -0.14500
C610        C  0.79286905  0.62525103  0.19916208    -0.29700
H611        H  0.74117292  0.60673060  0.24198743     0.14500
H612        H  0.80128128  0.65006203  0.17686615     0.15100
C613        C  0.77727722  0.52456836  0.16706884    -0.14500
C614        C  0.79206654  0.54381830  0.20003708    -0.29700
H615        H  0.79480883  0.53310119  0.13989249     0.14500
H616        H  0.77335206  0.53344498  0.22639666     0.15100
C617        C  0.64028671  0.43249452  0.40645276    -0.14500
C618        C  0.65309974  0.40314008  0.43432219    -0.29700
H619        H  0.66126244  0.46330367  0.40336574     0.14500
H620        H  0.63140916  0.37286065  0.43815354     0.15100
C621        C  0.90038439  0.56028731  0.16508058    -0.14500
C622        C  0.86356385  0.58861961  0.17066870    -0.29700
H623        H  0.90487465  0.53152563  0.18428193     0.14500
H624        H  0.86144769  0.61676353  0.15045893     0.15100
C625        C  0.93357626  0.57272670  0.62808339     0.88400
C626        C  0.96309838  0.61672259  0.63011278    -0.51800
C627        C  0.99516262  0.62285489  0.60046339     0.11300
C628        C  0.99571915  0.58443933  0.57205700     0.22300
C629        C  0.90901948  0.57325861  0.58754000    -0.52500
C630        C  0.94199874  0.57916631  0.55809543     0.11400
C631        C  0.97235854  0.53642585  0.62632802    -0.52100
C632        C  0.00447263  0.54258486  0.59695357     0.12000
H633        H  0.95958482  0.64034586  0.65315340     0.16500
H634        H  0.02287188  0.58907933  0.54855536     0.02300
H635        H  0.86961584  0.56827213  0.58270818     0.16800
H636        H  0.97336171  0.50747076  0.64564931     0.16600
C637        C  0.59031913  0.42632781  0.88408453     0.88400
C638        C  0.55515586  0.38539248  0.88347922    -0.51800
C639        C  0.52394782  0.38491407  0.85192815     0.11300
C640        C  0.53007481  0.42527953  0.82460040     0.22300
C641        C  0.61671063  0.42581861  0.84510769    -0.52500
C642        C  0.58499777  0.42472909  0.81406391     0.11400
C643        C  0.55636377  0.46654794  0.88122490    -0.52100
C644        C  0.52482358  0.46603434  0.85036253     0.12000
H645        H  0.55533421  0.35920593  0.90557098     0.16500
H646        H  0.50436695  0.42500676  0.79923913     0.02300
H647        H  0.65660367  0.42493929  0.84240540     0.16800
H648        H  0.55645866  0.49286642  0.90223436     0.16600
Zn649      Zn  0.70202380  0.40118049  0.65402505     1.49700
Zn650      Zn  0.61954337  0.35856783  0.70751937     1.49400
Zn651      Zn  0.63105210  0.46395539  0.69969663     1.49100
Zn652      Zn  0.58878267  0.40904734  0.62800504     1.49500
O653        O  0.63495623  0.40801753  0.67234683    -1.82200
O654        O  0.73850408  0.35224124  0.68252097    -0.72800
O655        O  0.59529606  0.38231759  0.75817964    -0.72700
O656        O  0.69151889  0.50204187  0.68971006    -0.72200
O657        O  0.68032872  0.32084401  0.71890199    -0.72800
O658        O  0.74116247  0.45875629  0.65683640    -0.72400
O659        O  0.62062431  0.45322661  0.75669928    -0.73000
O660        O  0.54418470  0.46320735  0.63032767    -0.72400
O661        O  0.56748079  0.31828840  0.68326249    -0.73200
O662        O  0.57246954  0.49989347  0.68130586    -0.72600
O663        O  0.54566057  0.35281011  0.62825955    -0.73000
O664        O  0.62624582  0.40863808  0.57737982    -0.72900
O665        O  0.69979264  0.38515030  0.59852521    -0.72700
C666        C  0.72446087  0.32227698  0.70660481     0.79100
C667        C  0.60154433  0.41976810  0.77428767     0.79500
C668        C  0.73142469  0.49584114  0.67175125     0.78500
C669        C  0.54183477  0.49575334  0.65335242     0.78900
C670        C  0.54193585  0.31991125  0.65197651     0.80000
C671        C  0.66919834  0.39359571  0.57121437     0.79100
C672        C  0.69371377  0.39884264  0.96131363    -0.00600
Zn673      Zn  0.95967708  0.56837282  0.93595177     1.49700
Zn674      Zn  0.88181737  0.51851737  0.88147500     1.49400
Zn675      Zn  0.84460628  0.56683519  0.95873356     1.49100
Zn676      Zn  0.88105114  0.62195707  0.88326809     1.49500
O677        O  0.89183112  0.56871232  0.91549515    -1.82200
O678        O  0.99624894  0.51329185  0.91786343    -0.72800
O679        O  0.82611618  0.48140849  0.90047439    -0.72700
O680        O  0.88355974  0.56965350  0.50722755    -0.72200
O681        O  0.94254268  0.48035453  0.87788520    -0.72800
O682        O  0.96081627  0.56998922  0.99478241    -0.72400
O683        O  0.79972961  0.51173443  0.95435439    -0.73000
O684        O  0.82074174  0.65195003  0.89991423    -0.72400
O685        O  0.85847800  0.53716530  0.82848391    -0.73200
O686        O  0.79775661  0.61940019  0.95510589    -0.72600
O687        O  0.86794385  0.61049453  0.82657862    -0.73000
O688        O  0.93698191  0.66514381  0.88865884    -0.72900
O689        O  0.99513802  0.62485917  0.91876847    -0.72700
C690        C  0.98466458  0.48216242  0.89471306     0.79100
C691        C  0.79639131  0.48226478  0.92836746     0.79500
C692        C  0.92828417  0.57766605  0.51669672     0.78500
C693        C  0.79207517  0.64886534  0.92844997     0.78900
C694        C  0.85543138  0.57433426  0.81062954     0.80000
C695        C  0.98049211  0.66076510  0.90230574     0.79100
C696        C  0.82600092  0.58607980  0.70064100    -0.00600
C697        C  0.43413947  0.56702506  0.61497122     0.88400
C698        C  0.46998992  0.52806471  0.61731158    -0.51800
C699        C  0.50290492  0.52969789  0.64737584     0.11300
C700        C  0.49637759  0.57064251  0.67303396     0.22300
C701        C  0.40923535  0.56702697  0.65480109    -0.52500
C702        C  0.44199889  0.56969723  0.68540260     0.11400
C703        C  0.46723066  0.60900140  0.61442281    -0.52100
C704        C  0.49923010  0.61132330  0.64534505     0.12000
H705        H  0.46977731  0.50161478  0.59643782     0.16500
H706        H  0.52307863  0.57200247  0.69767755     0.02300
H707        H  0.36943288  0.56693432  0.65820032     0.16800
H708        H  0.46407565  0.63522805  0.59249994     0.16600
C709        C  0.08533197  0.40278519  0.86087971     0.88400
C710        C  0.05017210  0.44286198  0.85807438    -0.52200
C711        C  0.01971370  0.44573132  0.88908704     0.11300
C712        C  0.02609722  0.40796905  0.91917233     0.22300
C713        C  0.11237180  0.40740774  0.90020202    -0.52500
C714        C  0.08114113  0.41013044  0.93080307     0.11400
C715        C  0.05152796  0.36200551  0.86638205    -0.52100
C716        C  0.02055488  0.36470309  0.89665431     0.12000
H717        H  0.05019780  0.46707333  0.83435570     0.16500
H718        H  0.00031991  0.40987576  0.94369224     0.02300
H719        H  0.15234628  0.40808516  0.90343035     0.16800
H720        H  0.05148696  0.33353022  0.84759688     0.16600
Zn721      Zn  0.14174296  0.47403959  0.59959329     1.49700
Zn722      Zn  0.05730803  0.41907482  0.55319974     1.49400
Zn723      Zn  0.16811706  0.41163822  0.53063416     1.49100
Zn724      Zn  0.13113415  0.37044500  0.61308873     1.49500
O725        O  0.12421498  0.41847805  0.57430174    -1.82200
O726        O  0.08502424  0.51540406  0.59599886    -0.72800
O727        O  0.05648189  0.42209557  0.49417787    -0.72700
O728        O  0.21084159  0.46523541  0.52269671    -0.72200
O729        O  0.02369185  0.47285048  0.57276002    -0.72800
O730        O  0.20087634  0.50446196  0.57556860    -0.72400
O731        O  0.14329158  0.41056249  0.98049543    -0.73000
O732        O  0.19315785  0.33721438  0.60065851    -0.72400
O733        O  0.01919003  0.36376098  0.57035679    -0.73200
O734        O  0.21439009  0.36197386  0.54192140    -0.72600
O735        O  0.07081575  0.32858759  0.61111745    -0.73000
O736        O  0.13982311  0.39373367  0.66815756    -0.72900
O737        O  0.15301180  0.46579958  0.65690443    -0.72700
C738        C  0.03977131  0.50872569  0.58757698     0.79100
C739        C  0.09768501  0.41383891  0.97150296     0.79500
C740        C  0.22184144  0.49808709  0.54356964     0.78500
C741        C  0.22153782  0.33705520  0.57161745     0.78900
C742        C  0.02942497  0.33106380  0.59299738     0.80000
C743        C  0.14934819  0.43276598  0.68025765     0.79100
C744        C  0.19353403  0.41962230  0.78767935    -0.00600
Zn745      Zn  0.45994647  0.59071108  0.81029938     1.49700
Zn746      Zn  0.34685146  0.58374004  0.78552948     1.49400
Zn747      Zn  0.38597536  0.53327499  0.86215770     1.49100
Zn748      Zn  0.37662635  0.63800531  0.86287305     1.49500
O749        O  0.39260369  0.58712021  0.83032803    -1.82200
O750        O  0.46029469  0.58560945  0.75146425    -0.72800
O751        O  0.29716076  0.53395102  0.79307830    -0.72700
O752        O  0.44432275  0.49318571  0.85730450    -0.72200
O753        O  0.38181891  0.57311039  0.73509551    -0.72800
O754        O  0.49982300  0.53753309  0.82873347    -0.72400
O755        O  0.32585183  0.49997654  0.84638525    -0.73000
O756        O  0.36029552  0.61790514  0.91942394    -0.72400
O757        O  0.30873007  0.64074058  0.77973600    -0.73200
O758        O  0.37513119  0.54548613  0.91834256    -0.72600
O759        O  0.31888906  0.67288817  0.83689097    -0.73000
O760        O  0.43737121  0.67952345  0.86530197    -0.72900
O761        O  0.49353414  0.64816446  0.82831379    -0.72700
C762        C  0.42717893  0.57627993  0.72612231     0.79100
C763        C  0.29419352  0.50358889  0.81914194     0.79500
C764        C  0.48753265  0.50054404  0.84464194     0.78500
C765        C  0.36302983  0.57980968  0.93659360     0.78900
C766        C  0.29883792  0.67132413  0.80313589     0.80000
C767        C  0.48016531  0.67929657  0.85026610     0.79100
C768        C  0.32557806  0.58650896  0.54005748    -0.00600
C769        C  0.34937524  0.57319905  0.97791915    -0.14500
C770        C  0.34753131  0.60620885  0.00357132    -0.29700
H771        H  0.33993842  0.53949585  0.98715229     0.14500
H772        H  0.36062870  0.63904331  0.99439934     0.15100
C773        C  0.22845508  0.45985692  0.78667360    -0.14500
C774        C  0.25365569  0.47112224  0.81883228    -0.29700
H775        H  0.23635555  0.47715583  0.75956058     0.14500
H776        H  0.24737081  0.45238344  0.84555837     0.15100
C777        C  0.22482866  0.38040246  0.80202915    -0.14500
C778        C  0.26400648  0.36758516  0.78183398    -0.29700
H779        H  0.21803092  0.36510285  0.83022198     0.14500
H780        H  0.26997306  0.38144430  0.75302603     0.15100
C781        C  0.15715779  0.44109122  0.72200456    -0.14500
C782        C  0.17256182  0.40940929  0.74731837    -0.29700
H783        H  0.15568766  0.47533266  0.73121814     0.14500
H784        H  0.17567287  0.37566137  0.73703689     0.15100
C785        C  0.29548320  0.54521652  0.55151919    -0.14500
C786        C  0.25803283  0.53055088  0.52918168    -0.29700
H787        H  0.30132300  0.52976636  0.57992062     0.14500
H788        H  0.25252541  0.54421615  0.50015106     0.15100
C789        C  0.28950699  0.62531072  0.53914550    -0.14500
C790        C  0.26175206  0.63300949  0.57018349    -0.29700
H791        H  0.28335516  0.64460664  0.51265228     0.14500
H792        H  0.26704677  0.61250344  0.59614502     0.15100
C793        C  0.11933610  0.39734657  0.82692895    -0.14500
C794        C  0.15245019  0.42859106  0.81617392    -0.29700
H795        H  0.11909286  0.36576568  0.81224708     0.14500
H796        H  0.15207110  0.46029867  0.83068249     0.15100
C797        C  0.39888290  0.56327088  0.58068267    -0.14500
C798        C  0.36559329  0.59452464  0.57086464    -0.29700
H799        H  0.39942039  0.53312296  0.56394600     0.14500
H800        H  0.36527659  0.62497293  0.58721564     0.15100
C801        C  0.83098192  0.57535813  0.77255672    -0.14500
C802        C  0.85328895  0.58791175  0.73961135    -0.29700
H803        H  0.79343771  0.56239047  0.77166151     0.14500
H804        H  0.89195211  0.59814345  0.74075333     0.15100
C805        C  0.72836476  0.35874849  0.96205771    -0.14500
C806        C  0.74671212  0.34231199  0.92955776    -0.29700
H807        H  0.74803580  0.35048879  0.98881408     0.14500
H808        H  0.74325223  0.69710170  0.90156787     0.15100
C809        C  0.72684579  0.44033779  0.95852415    -0.14500
C810        C  0.75745928  0.44769888  0.92896413    -0.29700
H811        H  0.72862829  0.46296339  0.98261849     0.14500
H812        H  0.75541451  0.42630242  0.90424013     0.15100
C813        C  0.68507550  0.38473636  0.53188103    -0.14500
C814        C  0.67612331  0.41289341  0.50188199    -0.29700
H815        H  0.70820378  0.35597002  0.52913578     0.14500
H816        H  0.65321780  0.44163824  0.50673972     0.15100
C817        C  0.74445790  0.62323428  0.71392170    -0.14500
C818        C  0.78925752  0.62402857  0.69773071    -0.29700
H819        H  0.73363868  0.59634700  0.73350374     0.14500
H820        H  0.79793069  0.65200092  0.67849700     0.15100
C821        C  0.76655846  0.53314728  0.66791987    -0.14500
C822        C  0.79954404  0.54110980  0.69629917    -0.29700
H823        H  0.75981169  0.55810517  0.64537751     0.14500
H824        H  0.80420261  0.51569518  0.71885424     0.15100
C825        C  0.62501531  0.42880786  0.91862051    -0.14500
C826        C  0.65660954  0.39615460  0.92769435    -0.29700
H827        H  0.62515410  0.45842044  0.93604347     0.14500
H828        H  0.65455391  0.36642188  0.91048103     0.15100
C829        C  0.89875390  0.56473794  0.66115114    -0.14500
C830        C  0.86226841  0.59294942  0.66781862    -0.29700
H831        H  0.90347902  0.53572130  0.68005964     0.14500
H832        H  0.85853194  0.62141341  0.64810442     0.15100
C833        C  0.92470246  0.91195853  0.12448098     0.88400
C834        C  0.95591865  0.95536670  0.12596590    -0.51800
C835        C  0.99065206  0.95870320  0.09768515     0.11300
C836        C  0.99092992  0.91832457  0.07074808     0.22300
C837        C  0.90300420  0.91130342  0.08334690    -0.52500
C838        C  0.93737065  0.91384598  0.05503147     0.11400
C839        C  0.96219752  0.87440339  0.12595022    -0.52100
C840        C  0.99669088  0.87759583  0.09802653     0.12000
H841        H  0.95164337  0.98106863  0.14705838     0.16500
H842        H  0.01937296  0.92058242  0.04801726     0.02300
H843        H  0.86370741  0.90718245  0.07729430     0.16800
H844        H  0.96070862  0.84674888  0.14666446     0.16600
C845        C  0.60103706  0.76562680  0.38592232     0.88400
C846        C  0.57155021  0.72094360  0.38482902    -0.51800
C847        C  0.53652894  0.71989767  0.35561074     0.11300
C848        C  0.53400393  0.76275747  0.33097400     0.22300
C849        C  0.62180188  0.77142951  0.34507603    -0.52500
C850        C  0.58689914  0.76887822  0.31639291     0.11400
C851        C  0.56150178  0.80140356  0.38858558    -0.52100
C852        C  0.52660106  0.80021382  0.35998973     0.12000
H853        H  0.57671119  0.69338171  0.40513357     0.16500
H854        H  0.50556927  0.76184757  0.30745990     0.02300
H855        H  0.66107182  0.77423361  0.33932699     0.16800
H856        H  0.56218893  0.82678803  0.41045513     0.16600
Zn857      Zn  0.70022145  0.74695399  0.15699342     1.49700
Zn858      Zn  0.61476318  0.70356412  0.20895242     1.49400
Zn859      Zn  0.62805322  0.80586835  0.20101782     1.49100
Zn860      Zn  0.58870153  0.75101391  0.12733828     1.49500
O861        O  0.63255132  0.75127600  0.17282219    -1.82200
O862        O  0.73138560  0.69597277  0.18406238    -0.72800
O863        O  0.58868814  0.72804074  0.25883667    -0.72700
O864        O  0.68403898  0.84714358  0.18930578    -0.72200
O865        O  0.67412888  0.66598099  0.22223837    -0.72800
O866        O  0.74046869  0.80214176  0.16652087    -0.72400
O867        O  0.62277826  0.79574381  0.25843575    -0.73000
O868        O  0.54299686  0.80446900  0.13128514    -0.72400
O869        O  0.56517898  0.66211381  0.18415822    -0.73200
O870        O  0.56799296  0.83795323  0.18510524    -0.72600
O871        O  0.54695299  0.69396157  0.12721405    -0.73000
O872        O  0.62852536  0.75092438  0.07687591    -0.72900
O873        O  0.70414777  0.73814371  0.10032983    -0.72700
C874        C  0.71749573  0.66658954  0.20866701     0.79100
C875        C  0.59995209  0.76413752  0.27571223     0.79500
C876        C  0.72708372  0.84022592  0.17708127     0.78500
C877        C  0.53863507  0.83479427  0.15640930     0.78900
C878        C  0.54226410  0.66194175  0.15173142     0.80000
C879        C  0.67422194  0.74272353  0.07192721     0.79100
C880        C  0.70734797  0.74960241  0.46585605    -0.00600
Zn881      Zn  0.96613833  0.92341146  0.43810173     1.49700
Zn882      Zn  0.88297835  0.87575349  0.38588618     1.49400
Zn883      Zn  0.85126576  0.92107089  0.46307889     1.49100
Zn884      Zn  0.88936718  0.97907994  0.39116127     1.49500
O885        O  0.89770572  0.92422853  0.42017517    -1.82200
O886        O  0.99686018  0.86628855  0.42217887    -0.72800
O887        O  0.81848074  0.84612768  0.39979052    -0.72700
O888        O  0.87823656  0.90415272  0.00414463    -0.72200
O889        O  0.93723509  0.83054506  0.38959099    -0.72800
O890        O  0.96853554  0.92438695  0.49701776    -0.72400
O891        O  0.80323609  0.86845437  0.45913451    -0.73000
O892        O  0.82676230  0.00615169  0.40522765    -0.72400
O893        O  0.87773926  0.89746983  0.33051253    -0.73200
O894        O  0.80619777  0.97390268  0.46126314    -0.72600
O895        O  0.88545754  0.97065653  0.33472582    -0.73000
O896        O  0.94502103  0.02191607  0.39774255    -0.72900
O897        O  0.00576884  0.97627157  0.41517937    -0.72700
C898        C  0.98076392  0.83259115  0.40397879     0.79100
C899        C  0.79258306  0.84453567  0.43014419     0.79500
C900        C  0.92370919  0.90901482  0.01375036     0.78500
C901        C  0.79867318  0.00224046  0.43404269     0.78900
C902        C  0.87966151  0.93616117  0.31483614     0.80000
C903        C  0.99062681  0.01404811  0.40271770     0.79100
C904        C  0.83154432  0.91797658  0.21119908    -0.00600
C905        C  0.43078262  0.90630693  0.12125654     0.88400
C906        C  0.46576548  0.86690065  0.12279868    -0.51800
C907        C  0.49928876  0.86799202  0.15219408     0.11300
C908        C  0.49429476  0.90862295  0.17839069     0.22300
C909        C  0.40675068  0.90641490  0.16146843    -0.52500
C910        C  0.44018597  0.90813332  0.19165799     0.11400
C911        C  0.46491527  0.94784252  0.12033317    -0.52100
C912        C  0.49799749  0.94931416  0.15074926     0.12000
H913        H  0.46493373  0.84070866  0.10165976     0.16500
H914        H  0.52165308  0.90921540  0.20261977     0.02300
H915        H  0.36705293  0.90631158  0.16545442     0.16800
H916        H  0.46249564  0.97379298  0.09811683     0.16600
C917        C  0.08410482  0.76095603  0.36752586     0.88400
C918        C  0.04815502  0.79968461  0.36841262    -0.52200
C919        C  0.01485159  0.79642703  0.39720095     0.11300
C920        C  0.01972696  0.75444302  0.42292087     0.22300
C921        C  0.10747572  0.75900045  0.40852502    -0.52500
C922        C  0.07368475  0.75509535  0.43761669     0.11400
C923        C  0.05093185  0.71871859  0.36579691    -0.52100
C924        C  0.01723606  0.71547359  0.39499418     0.12000
H925        H  0.04959615  0.82809448  0.34849801     0.16500
H926        H  0.99204788  0.75203501  0.44622549     0.02300
H927        H  0.14709447  0.76038614  0.41390684     0.16800
H928        H  0.05399494  0.69380223  0.34378309     0.16600
Zn929      Zn  0.13515904  0.80780111  0.11145672     1.49700
Zn930      Zn  0.05231577  0.75013245  0.06252647     1.49400
Zn931      Zn  0.16338119  0.74726521  0.04107335     1.49100
Zn932      Zn  0.12869232  0.70338159  0.12335800     1.49500
O933        O  0.11937989  0.75210307  0.08497119    -1.82200
O934        O  0.07673986  0.84836046  0.10489399    -0.72800
O935        O  0.05090255  0.75000547  0.00324950    -0.72700
O936        O  0.20475455  0.80178270  0.03415101    -0.72200
O937        O  0.01735030  0.80563729  0.07862209    -0.72800
O938        O  0.19504888  0.83952805  0.08791692    -0.72400
O939        O  0.13247723  0.74476292  0.48877328    -0.73000
O940        O  0.19038758  0.67070507  0.10972802    -0.72400
O941        O  0.01668770  0.69265093  0.07940641    -0.73200
O942        O  0.21045834  0.69821628  0.05170976    -0.72600
O943        O  0.07033457  0.65940723  0.11986668    -0.73000
O944        O  0.13967488  0.72518749  0.17929904    -0.72900
O945        O  0.14704707  0.79818672  0.16971991    -0.72700
C946        C  0.03241743  0.84219118  0.09308084     0.79100
C947        C  0.08761702  0.75156894  0.47923267     0.79500
C948        C  0.21578489  0.83415603  0.05557437     0.78500
C949        C  0.21812473  0.67184413  0.08036719     0.78900
C950        C  0.02927521  0.65969679  0.10110173     0.80000
C951        C  0.14750160  0.76413601  0.19237637     0.79100
C952        C  0.19881473  0.74650462  0.29932524    -0.00600
Zn953      Zn  0.46380443  0.92453582  0.31663295     1.49700
Zn954      Zn  0.34757446  0.91606733  0.29529985     1.49400
Zn955      Zn  0.38825152  0.87252971  0.37609475     1.49100
Zn956      Zn  0.38803464  0.97729316  0.36566161     1.49500
O957        O  0.39693406  0.92195903  0.33826236    -1.82200
O958        O  0.46065968  0.92103863  0.25780644    -0.72800
O959        O  0.29874225  0.86433037  0.30559385    -0.72700
O960        O  0.44876079  0.83209350  0.37362205    -0.72200
O961        O  0.38163110  0.90756247  0.24326181    -0.72800
O962        O  0.49993293  0.86907269  0.33399682    -0.72400
O963        O  0.32657116  0.83604271  0.36165633    -0.73000
O964        O  0.36926359  0.96771914  0.42099523    -0.72400
O965        O  0.30859097  0.97324864  0.28947196    -0.73200
O966        O  0.37797563  0.89511979  0.43174572    -0.72600
O967        O  0.33938801  0.01471064  0.33697018    -0.73000
O968        O  0.44837721  0.01546965  0.36876649    -0.72900
O969        O  0.50303271  0.98118875  0.33325538    -0.72700
C970        C  0.42658141  0.91231635  0.23306782     0.79100
C971        C  0.29539411  0.83605388  0.33354723     0.79500
C972        C  0.48943381  0.83540828  0.35544036     0.78500
C973        C  0.36928490  0.93411328  0.44388747     0.78900
C974        C  0.31111160  0.00957652  0.30774012     0.80000
C975        C  0.49084573  0.01363360  0.35426258     0.79100
C976        C  0.32039812  0.92248648  0.04813660    -0.00600
C977        C  0.35891098  0.94228268  0.48514970    -0.14500
C978        C  0.33876066  0.91161992  0.50919869    -0.29700
H979        H  0.36314025  0.97622144  0.49493624     0.14500
H980        H  0.33282590  0.87817331  0.49859700     0.15100
C981        C  0.22688445  0.79141750  0.30258974    -0.14500
C982        C  0.25592105  0.80099390  0.33365247    -0.29700
H983        H  0.22937916  0.81315674  0.27726207     0.14500
H984        H  0.25476953  0.77866230  0.35873213     0.15100
C985        C  0.23714445  0.71059652  0.30731067    -0.14500
C986        C  0.27799666  0.70709506  0.28636320    -0.29700
H987        H  0.23346638  0.68837194  0.33236909     0.14500
H988        H  0.28329132  0.72726583  0.26033275     0.15100
C989        C  0.15849826  0.77104096  0.23439809    -0.14500
C990        C  0.17671051  0.73886272  0.25842135    -0.29700
H991        H  0.15552676  0.80465254  0.24480677     0.14500
H992        H  0.18056548  0.70588327  0.24663167     0.15100
C993        C  0.29021054  0.88188026  0.06167392    -0.14500
C994        C  0.25125554  0.86728347  0.04081803    -0.29700
H995        H  0.29754860  0.86690040  0.09004033     0.14500
H996        H  0.24464598  0.88072709  0.01183997     0.15100
C997        C  0.28484150  0.96121280  0.04603302    -0.14500
C998        C  0.25771768  0.97095895  0.07680645    -0.29700
H999        H  0.27814438  0.97868465  0.01867788     0.14500
H1000       H  0.26321002  0.95251174  0.10386425     0.15100
C1001       C  0.12086876  0.76753949  0.33476338    -0.14500
C1002       C  0.15892658  0.74020823  0.33016308    -0.29700
H1003       H  0.11734600  0.79621755  0.31533096     0.14500
H1004       H  0.16145113  0.71225586  0.35052595     0.15100
C1005       C  0.39500480  0.90193551  0.08750155    -0.14500
C1006       C  0.36111245  0.93240000  0.07781089    -0.29700
H1007       H  0.39515167  0.87140971  0.07123575     0.14500
H1008       H  0.36093477  0.96339223  0.09340428     0.15100
C1009       C  0.87238703  0.94210123  0.27296183    -0.14500
C1010       C  0.85010214  0.91032192  0.25229415    -0.29700
H1011       H  0.87960142  0.97465742  0.25987211     0.14500
H1012       H  0.84159857  0.87875253  0.26678949     0.15100
C1013       C  0.74913981  0.71958906  0.45400499    -0.14500
C1014       C  0.74608106  0.67532943  0.45362313    -0.29700
H1015       H  0.78446509  0.73450505  0.44595503     0.14500
H1016       H  0.74394233  0.04382358  0.40617176     0.15100
C1017       C  0.72927142  0.79707073  0.46376499    -0.14500
C1018       C  0.75124172  0.81206998  0.43108146    -0.29700
H1019       H  0.73528615  0.81499889  0.49038816     0.14500
H1020       H  0.74523823  0.79342825  0.40481453     0.15100
C1021       C  0.69530624  0.73910830  0.03303605    -0.14500
C1022       C  0.66880537  0.73545849  0.99997119    -0.29700
H1023       H  0.73539394  0.73898004  0.03160191     0.14500
H1024       H  0.62871012  0.73452397  0.00129243     0.15100
C1025       C  0.75443247  0.96018179  0.22704046    -0.14500
C1026       C  0.79842773  0.95866070  0.20928136    -0.29700
H1027       H  0.74364309  0.93363765  0.24707089     0.14500
H1028       H  0.80851936  0.98543473  0.18918040     0.15100
C1029       C  0.76208395  0.87736162  0.17641978    -0.14500
C1030       C  0.80201715  0.87631590  0.19984236    -0.29700
H1031       H  0.75044754  0.90807044  0.16218574     0.14500
H1032       H  0.81099410  0.84476920  0.21414064     0.15100
C1033       C  0.64137576  0.77290407  0.41617560    -0.14500
C1034       C  0.66269471  0.74125017  0.43868101    -0.29700
H1035       H  0.65514381  0.80683347  0.41746119     0.14500
H1036       H  0.64861976  0.70741384  0.43730740     0.15100
C1037       C  0.88478023  0.90279456  0.15355969    -0.14500
C1038       C  0.87532590  0.92712059  0.18466623    -0.29700
H1039       H  0.86283208  0.87317521  0.14782424     0.14500
H1040       H  0.89839518  0.95587314  0.19090667     0.15100
C1041       C  0.93898287  0.92160050  0.63384237     0.88400
C1042       C  0.97459595  0.96153698  0.63374997    -0.51800
C1043       C  0.00811883  0.96121759  0.60502185     0.11300
C1044       C  0.00381861  0.92030823  0.57907893     0.22300
C1045       C  0.91599000  0.92170488  0.59298404    -0.52500
C1046       C  0.94983148  0.92095247  0.56411741     0.11400
C1047       C  0.97215486  0.88049780  0.63593327    -0.52100
C1048       C  0.00612127  0.87966814  0.60722682     0.12000
H1049       H  0.97243559  0.98869670  0.65381868     0.16500
H1050       H  0.03167624  0.91989569  0.55590941     0.02300
H1051       H  0.87638433  0.92268631  0.58752286     0.16800
H1052       H  0.96848229  0.85411464  0.65765068     0.16600
C1053       C  0.58389564  0.75699139  0.88809386     0.88400
C1054       C  0.54850807  0.71624006  0.88825011    -0.51800
C1055       C  0.51515290  0.71643628  0.85797990     0.11300
C1056       C  0.52000170  0.75742248  0.83081301     0.22300
C1057       C  0.60771931  0.75725057  0.84796473    -0.52500
C1058       C  0.57423907  0.75675540  0.81795339     0.11400
C1059       C  0.55007985  0.79721111  0.88724723    -0.52100
C1060       C  0.51684849  0.79780163  0.85759211     0.12000
H1061       H  0.55041575  0.68941560  0.90970218     0.16500
H1062       H  0.49276261  0.75783126  0.80644790     0.02300
H1063       H  0.64736067  0.75628193  0.84377786     0.16800
H1064       H  0.55222054  0.82342386  0.90835368     0.16600
Zn1065     Zn  0.68015943  0.73143478  0.64609647     1.49700
Zn1066     Zn  0.60483388  0.69266655  0.70916286     1.49400
Zn1067     Zn  0.62129165  0.79498225  0.70233678     1.49100
Zn1068     Zn  0.56923346  0.74280488  0.63157800     1.49500
O1069       O  0.61865005  0.74075092  0.67245799    -1.82200
O1070       O  0.71545720  0.68102520  0.67219302    -0.72800
O1071       O  0.57961252  0.71545249  0.76038121    -0.72700
O1072       O  0.68538036  0.82733690  0.69276583    -0.72200
O1073       O  0.66681019  0.65764135  0.71996548    -0.72800
O1074       O  0.72304751  0.78508756  0.65046594    -0.72400
O1075       O  0.61044489  0.78433989  0.75990834    -0.73000
O1076       O  0.52620144  0.79517047  0.64041149    -0.72400
O1077       O  0.55607276  0.65026426  0.68509095    -0.73200
O1078       O  0.56648385  0.83511084  0.68467185    -0.72600
O1079       O  0.53062974  0.68428431  0.63068989    -0.73000
O1080       O  0.59979485  0.75315722  0.57872489    -0.72900
O1081       O  0.67433067  0.72501252  0.58803270    -0.72700
C1082       C  0.70708795  0.65600337  0.70163860     0.79100
C1083       C  0.58885004  0.75197776  0.77728966     0.79500
C1084       C  0.72091482  0.81993113  0.67022679     0.78500
C1085       C  0.53094909  0.82999099  0.66065169     0.78900
C1086       C  0.53034720  0.65074771  0.65394771     0.80000
C1087       C  0.64138073  0.74184923  0.56568215     0.79100
C1088       C  0.69407295  0.73319227  0.96070026    -0.00600
Zn1089     Zn  0.95641848  0.90430174  0.93064938     1.49700
Zn1090     Zn  0.87816363  0.85674575  0.87435465     1.49400
Zn1091     Zn  0.84162057  0.90090998  0.95281950     1.49100
Zn1092     Zn  0.87958813  0.96130596  0.88343963     1.49500
O1093       O  0.88877276  0.90494540  0.91045762    -1.82200
O1094       O  0.99024216  0.84735281  0.91680278    -0.72800
O1095       O  0.81613808  0.82208004  0.88951250    -0.72700
O1096       O  0.88938056  0.91927100  0.51363284    -0.72200
O1097       O  0.93703006  0.81443665  0.87635572    -0.72800
O1098       O  0.95756094  0.90961531  0.98868975    -0.72400
O1099       O  0.79823260  0.84569400  0.94815552    -0.73000
O1100       O  0.81860744  0.98970919  0.89906575    -0.72400
O1101       O  0.86805048  0.88159109  0.81955401    -0.73200
O1102       O  0.79351533  0.95174631  0.95091703    -0.72600
O1103       O  0.87118606  0.95477765  0.82690077    -0.73000
O1104       O  0.93538745  0.00370281  0.89216202    -0.72900
O1105       O  0.99525146  0.95739309  0.91042693    -0.72700
C1106       C  0.97819226  0.81533744  0.89492654     0.79100
C1107       C  0.78999037  0.81999122  0.91984939     0.79500
C1108       C  0.93523771  0.92155260  0.52268553     0.78500
C1109       C  0.78866806  0.98348397  0.92636571     0.78900
C1110       C  0.86574807  0.92124292  0.80568544     0.80000
C1111       C  0.98049348  0.99574242  0.89946338     0.79100
C1112       C  0.82522767  0.89953958  0.69984759    -0.00600
C1113       C  0.42863278  0.90564276  0.62240476     0.88400
C1114       C  0.46201819  0.86529955  0.62502506    -0.51800
C1115       C  0.49495943  0.86580395  0.65492458     0.11300
C1116       C  0.49160038  0.90724635  0.68007624     0.22300
C1117       C  0.40411661  0.90713794  0.66228992    -0.52500
C1118       C  0.43745126  0.90845637  0.69259542     0.11400
C1119       C  0.46399116  0.94615456  0.62132735    -0.52100
C1120       C  0.49661176  0.94733636  0.65205329     0.12000
H1121       H  0.46015055  0.83854238  0.60443495     0.16500
H1122       H  0.51866416  0.90751029  0.70452422     0.02300
H1123       H  0.36439618  0.90803065  0.66601311     0.16800
H1124       H  0.46247028  0.97190282  0.59888190     0.16600
C1125       C  0.08289260  0.73801450  0.86687184     0.88400
C1126       C  0.04743000  0.77748714  0.86286638    -0.52200
C1127       C  0.01317106  0.77849248  0.89134656     0.11300
C1128       C  0.01731241  0.73982272  0.92113093     0.22300
C1129       C  0.10544483  0.74115190  0.90798232    -0.52500
C1130       C  0.07103615  0.74212464  0.93664312     0.11400
C1131       C  0.04954444  0.69670272  0.86864249    -0.52100
C1132       C  0.01552668  0.69752200  0.89688977     0.12000
H1133       H  0.04985561  0.80276171  0.84006875     0.16500
H1134       H  0.98894175  0.74032354  0.94391752     0.02300
H1135       H  0.14499353  0.74213577  0.91374917     0.16800
H1136       H  0.05241612  0.66899776  0.84920715     0.16600
Zn1137     Zn  0.14074569  0.79957611  0.61790139     1.49700
Zn1138     Zn  0.05593775  0.75236350  0.56395548     1.49400
Zn1139     Zn  0.16801295  0.74585395  0.54021630     1.49100
Zn1140     Zn  0.13267819  0.69464093  0.61543003     1.49500
O1141       O  0.12387071  0.74879322  0.58458595    -1.82200
O1142       O  0.08236978  0.84232687  0.61773722    -0.72800
O1143       O  0.05467683  0.75575202  0.50477751    -0.72700
O1144       O  0.20674213  0.80155897  0.53723512    -0.72200
O1145       O  0.02385271  0.80898511  0.58211807    -0.72800
O1146       O  0.19821608  0.83482533  0.59364969    -0.72400
O1147       O  0.12926515  0.73961882  0.98916201    -0.73000
O1148       O  0.19138806  0.66141582  0.59852991    -0.72400
O1149       O  0.01685482  0.69649479  0.58024303    -0.73200
O1150       O  0.21681936  0.69532384  0.54474035    -0.72600
O1151       O  0.07317579  0.65514622  0.61153999    -0.73000
O1152       O  0.14683642  0.70576049  0.67120523    -0.72900
O1153       O  0.15737351  0.77893297  0.67456604    -0.72700
C1154       C  0.03924597  0.84159954  0.60220572     0.79100
C1155       C  0.08437147  0.74400977  0.97851006     0.79500
C1156       C  0.21694555  0.83278584  0.56009176     0.78500
C1157       C  0.22126644  0.66501988  0.57075456     0.78900
C1158       C  0.02989108  0.66051630  0.59763041     0.80000
C1159       C  0.15739061  0.74006170  0.69051778     0.79100
C1160       C  0.19529868  0.76076657  0.79903573    -0.00600
Zn1161     Zn  0.45952764  0.92510922  0.81641975     1.49700
Zn1162     Zn  0.34741603  0.91672034  0.79484230     1.49400
Zn1163     Zn  0.38660749  0.87719897  0.87683511     1.49100
Zn1164     Zn  0.37985889  0.98142789  0.86292953     1.49500
O1165       O  0.39352633  0.92531462  0.83799125    -1.82200
O1166       O  0.45737869  0.92402396  0.75796960    -0.72800
O1167       O  0.30269224  0.86600001  0.80715727    -0.72700
O1168       O  0.44319824  0.83428789  0.87312079    -0.72200
O1169       O  0.37962552  0.90596907  0.74382005    -0.72800
O1170       O  0.49384246  0.86778533  0.83127562    -0.72400
O1171       O  0.32573405  0.84123604  0.86565500    -0.73000
O1172       O  0.36735395  0.97235652  0.92025611    -0.72400
O1173       O  0.30566541  0.97016673  0.78578247    -0.73200
O1174       O  0.37958689  0.90024869  0.93155394    -0.72600
O1175       O  0.32171037  0.01285331  0.83632002    -0.73000
O1176       O  0.44018994  0.02135320  0.86025770    -0.72900
O1177       O  0.49831132  0.97975962  0.83442479    -0.72700
C1178       C  0.42393210  0.91301793  0.73354979     0.79100
C1179       C  0.29738710  0.83973627  0.83611336     0.79500
C1180       C  0.48227018  0.83482442  0.85311778     0.78500
C1181       C  0.37003940  0.93901319  0.94351341     0.78900
C1182       C  0.29815486  0.00483528  0.80494203     0.80000
C1183       C  0.48457782  0.01553285  0.85009349     0.79100
C1184       C  0.31902033  0.92295047  0.54920248    -0.00600
C1185       C  0.36043677  0.94617346  0.98498813    -0.14500
C1186       C  0.34189121  0.91379473  0.00828176    -0.29700
H1187       H  0.36288173  0.97998468  0.99532529     0.14500
H1188       H  0.33773720  0.88056403  0.99679311     0.15100
C1189       C  0.23135715  0.79928745  0.80268642    -0.14500
C1190       C  0.25829100  0.80579835  0.83504076    -0.29700
H1191       H  0.23730859  0.82104792  0.77761985     0.14500
H1192       H  0.25338407  0.78398151  0.86016462     0.15100
C1193       C  0.22420783  0.71786152  0.80830446    -0.14500
C1194       C  0.26538735  0.70709723  0.78947380    -0.29700
H1195       H  0.21414236  0.69777445  0.83352913     0.14500
H1196       H  0.27549509  0.72577580  0.76353790     0.15100
C1197       C  0.17249449  0.73263091  0.73163160    -0.14500
C1198       C  0.17229905  0.76452684  0.75818711    -0.29700
H1199       H  0.18478481  0.69951669  0.73985832     0.14500
H1200       H  0.15648184  0.79644423  0.74978163     0.15100
C1201       C  0.28852730  0.88371210  0.56495378    -0.14500
C1202       C  0.24908832  0.86842337  0.54532833    -0.29700
H1203       H  0.29735057  0.86904905  0.59319547     0.14500
H1204       H  0.24115722  0.88142454  0.51638637     0.15100
C1205       C  0.28468398  0.96268443  0.54664974    -0.14500
C1206       C  0.26112055  0.97584372  0.57825267    -0.29700
H1207       H  0.27673101  0.97869368  0.51883784     0.14500
H1208       H  0.26841399  0.95898070  0.60582295     0.15100
C1209       C  0.11998849  0.73513194  0.83484555    -0.14500
C1210       C  0.15494786  0.76632874  0.82868259    -0.29700
H1211       H  0.11942059  0.70589196  0.81692196     0.14500
H1212       H  0.15551320  0.79543368  0.84681182     0.15100
C1213       C  0.39340419  0.90159616  0.58832791    -0.14500
C1214       C  0.36105712  0.93298899  0.57767935    -0.29700
H1215       H  0.39212514  0.87042271  0.57297664     0.14500
H1216       H  0.36249349  0.96463528  0.59228220     0.15100
C1217       C  0.85289761  0.92953374  0.76472167    -0.14500
C1218       C  0.85027269  0.89651307  0.73947646    -0.29700
H1219       H  0.84180806  0.96290922  0.75614870     0.14500
H1220       H  0.86491368  0.86423229  0.74825647     0.15100
C1221       C  0.72811405  0.69281864  0.96089754    -0.14500
C1222       C  0.75176062  0.68090328  0.92899909    -0.29700
H1223       H  0.73565354  0.67470465  0.98781382     0.14500
H1224       H  0.74044333  0.03332448  0.90186217     0.15100
C1225       C  0.72571346  0.77568665  0.95466563    -0.14500
C1226       C  0.75009600  0.78589824  0.92189728    -0.29700
H1227       H  0.73185341  0.79711336  0.97919864     0.14500
H1228       H  0.74250988  0.76751392  0.89594023     0.15100
C1229       C  0.65187280  0.75065227  0.52421623    -0.14500
C1230       C  0.69391607  0.73774758  0.50762281    -0.29700
H1231       H  0.62505757  0.76958097  0.50719828     0.14500
H1232       H  0.71992724  0.71809974  0.52488427     0.15100
C1233       C  0.75483516  0.95167747  0.71147782    -0.14500
C1234       C  0.79608672  0.94249040  0.69187382    -0.29700
H1235       H  0.74423923  0.92983367  0.73542438     0.14500
H1236       H  0.80608153  0.96366860  0.66732230     0.15100
C1237       C  0.76102211  0.85240315  0.66721877    -0.14500
C1238       C  0.78878842  0.86097518  0.69844412    -0.29700
H1239       H  0.76696315  0.87009342  0.63997839     0.14500
H1240       H  0.78222796  0.84120955  0.72466837     0.15100
C1241       C  0.62056226  0.75942010  0.92153804    -0.14500
C1242       C  0.65471606  0.72835353  0.92877793    -0.29700
H1243       H  0.62029310  0.78834108  0.93982208     0.14500
H1244       H  0.65454561  0.69922732  0.91072840     0.15100
C1245       C  0.90147414  0.92412699  0.66541097    -0.14500
C1246       C  0.86459025  0.89420604  0.66956235    -0.29700
H1247       H  0.90331235  0.95220223  0.68466171     0.14500
H1248       H  0.86268721  0.86605839  0.65037576     0.15100
loop_ 
_geom_bond_atom_site_label_1 
_geom_bond_atom_site_label_2 
_geom_bond_distance 
_geom_bond_site_symmetry_2 
_ccdc_geom_bond_type 
C1            C2   1.530       .  S
C1            C7   1.544       .  S
C1            C5   1.537       .  S
C1          C205   1.508       .  S
C2            H9   1.087       .  S
C2            C3   1.356   1_655  D
C3            C4   1.539   1_455  S
C3          C534   1.466       .  S
C4            C8   1.534   1_655  S
C4            C6   1.541       .  S
C4           H10   1.111   1_655  S
C5           H11   1.086       .  S
C5            C6   1.368       .  D
C6           C68   1.477       .  S
C7           H12   1.086       .  S
C7            C8   1.369   1_655  D
C8          C114   1.471       .  S
C13          C14   1.547       .  S
C13          C19   1.531       .  S
C13          C17   1.547       .  S
C13         C201   1.524       .  S
C14          H21   1.086       .  S
C14          C15   1.372       .  D
C15          C16   1.537       .  S
C15         C975   1.478       .  S
C16          C20   1.550       .  S
C16          C18   1.535       .  S
C16          H22   1.111       .  S
C17          H23   1.086       .  S
C17          C18   1.371       .  D
C18          C43   1.477       .  S
C19          H24   1.087       .  S
C19          C20   1.357       .  D
C20         C140   1.480       .  S
Zn25         O29   1.926       .  S
Zn25         O30   1.969       .  S
Zn25         O34   1.960       .  S
Zn25         O41   1.970       .  S
Zn26         O29   1.948       .  S
Zn26         O31   2.052       .  S
Zn26         O33   2.050   1_545  S
Zn26         O37   2.029   1_545  S
Zn27         O29   1.957       .  S
Zn27         O32   1.993       .  S
Zn27         O35   2.025       .  S
Zn27         O38   2.002       .  S
Zn28         O29   1.961       .  S
Zn28         O36   2.052       .  S
Zn28         O39   2.055       .  S
Zn28         O40   2.089       .  S
O30          C42   1.269   1_545  A
O31          C43   1.278       .  A
O32          C44   1.270       .  A
O33          C42   1.276       .  A
O34          C44   1.263       .  A
O35          C43   1.272       .  A
O36          C45   1.282       .  A
O37          C46   1.278       .  A
O38          C45   1.270       .  A
O39          C46   1.280   1_545  A
O40          C47   1.280       .  A
O41          C47   1.266       .  A
C42        C1025   1.476       .  S
C44         C197   1.445       .  S
C45          C75   1.482       .  S
C46         C912   1.487       .  S
C47         C189   1.480       .  S
C48         C181   1.525       .  S
C48         C185   1.536       .  S
C48         C202   1.536       .  S
C48         C398   1.531       .  S
Zn49         O53   1.940       .  S
Zn49         O54   1.984       .  S
Zn49         O58   2.008       .  S
Zn49         O65   2.003       .  S
Zn50         O53   1.939       .  S
Zn50         O55   2.032       .  S
Zn50         O57   2.029       .  S
Zn50         O61   2.024       .  S
Zn51         O53   1.923       .  S
Zn51         O59   2.002       .  S
Zn51         O62   1.985       .  S
Zn51        O264   1.987       .  S
Zn52         O53   1.933       .  S
Zn52         O60   1.984       .  S
Zn52         O63   1.967       .  S
Zn52         O64   2.007       .  S
O54          C66   1.269       .  A
O55          C67   1.274       .  A
O56        Zn259   2.021   1_554  S
O56          C68   1.277       .  A
O57          C66   1.275       .  A
O58         C276   1.269       .  A
O59          C67   1.273       .  A
O60          C69   1.267       .  A
O61          C70   1.277       .  A
O62          C69   1.269       .  A
O63          C70   1.266       .  A
O64          C71   1.271       .  A
O65          C71   1.272       .  A
C66          C87   1.458   1_655  S
C67         C186   1.478       .  S
C68         O266   1.276   1_554  A
C69         C598   1.454       .  S
C70         C177   1.464       .  S
C71         C508   1.458   1_655  S
C72         C178   1.516       .  S
C72         C194   1.539       .  S
C72         C198   1.508       .  S
C72         C206   1.520       .  S
C73          C74   1.526       .  S
C73          C79   1.545       .  S
C73          C77   1.547       .  S
C73         C173   1.519       .  S
C74          H81   1.087       .  S
C74          C75   1.356       .  D
C75          C76   1.550       .  S
C76          C80   1.546       .  S
C76          C78   1.544       .  S
C76          H82   1.110       .  S
C77          H83   1.086       .  S
C77          C78   1.373       .  D
C78         C138   1.493       .  S
C79          H84   1.086       .  S
C79          C80   1.373       .  D
C80         C462   1.494       .  S
C85          C86   1.528       .  S
C85          C91   1.548       .  S
C85          C89   1.544       .  S
C85         C169   1.518       .  S
C86          H93   1.087       .  S
C86          C87   1.351       .  D
C87          C88   1.533       .  S
C88          C92   1.529       .  S
C88          C90   1.536       .  S
C88          H94   1.111   1_455  S
C89          H95   1.086       .  S
C89          C90   1.375       .  D
C90         C115   1.481       .  S
C91          H96   1.086       .  S
C91          C92   1.374       .  D
C92         C903   1.468   1_455  S
Zn97        O101   1.957       .  S
Zn97        O102   2.030       .  S
Zn97        O106   2.042       .  S
Zn97        O113   2.019       .  S
Zn98        O101   1.956       .  S
Zn98        O103   2.047   1_554  S
Zn98        O105   2.041       .  S
Zn98        O109   2.060       .  S
Zn99        O101   1.963       .  S
Zn99        O104   2.007       .  S
Zn99        O110   1.994       .  S
Zn99        O315   2.009   1_554  S
Zn100       O101   1.962       .  S
Zn100       O108   1.996       .  S
Zn100       O111   2.043   1_545  S
Zn100       O112   2.044       .  S
O102        C114   1.276       .  A
O103        C323   1.278       .  A
O104        C116   1.269       .  A
O105        C114   1.279       .  A
O106        C116   1.274       .  A
O107       Zn307   2.012       .  S
O107        C115   1.271       .  A
O108        C117   1.271       .  A
O109        C118   1.277   1_545  A
O110        C117   1.273       .  A
O111        C118   1.275       .  A
O112        C119   1.275       .  A
O113        C119   1.272       .  A
C115        O311   1.275       .  A
C116        C162   1.472       .  S
C117        C998   1.460   1_545  S
C118        C835   1.485   1_455  S
C119        C157   1.475       .  S
C120        C149   1.550       .  S
C120        C153   1.530       .  S
C120        C158   1.533       .  S
C120        C170   1.531       .  S
Zn121       O125   1.976       .  S
Zn121       O126   2.036       .  S
Zn121       O130   2.032       .  S
Zn121       O137   2.071       .  S
Zn122       O125   1.990       .  S
Zn122       O127   2.068       .  S
Zn122       O129   2.062       .  S
Zn122       O133   2.043       .  S
Zn123       O125   1.976       .  S
Zn123       O128   2.056       .  S
Zn123       O131   2.030       .  S
Zn123       O134   2.059       .  S
Zn124       O125   1.976       .  S
Zn124       O132   2.038       .  S
Zn124       O135   2.055       .  S
Zn124       O136   2.042       .  S
O126        C138   1.277       .  A
O127        C139   1.280       .  A
O128        C140   1.277       .  A
O129        C138   1.279       .  A
O130        C140   1.274       .  A
O131        C139   1.275       .  A
O132        C141   1.275       .  A
O133        C142   1.275       .  A
O134        C141   1.279       .  A
O135        C142   1.279       .  A
O136        C143   1.275       .  A
O137        C143   1.279       .  A
C139        C150   1.490       .  S
C141        C145   1.491       .  S
C142        C570   1.481       .  S
C143        C431   1.487       .  S
C144        C161   1.535       .  S
C144        C165   1.521       .  S
C144        C174   1.532       .  S
C144        C354   1.532   1_554  S
C145        H147   1.086       .  S
C145        C146   1.350       .  D
C146        C352   1.541       .  S
C146        H148   1.088       .  S
C149        H151   1.086       .  S
C149        C150   1.351       .  D
C150        H152   1.087       .  S
C153        H155   1.089       .  S
C153        C154   1.341       .  D
C154        H156   1.081       .  S
C154        C974   1.462       .  S
C157        H159   1.086       .  S
C157        C158   1.347       .  D
C158        H160   1.088       .  S
C161        H163   1.088       .  S
C161        C162   1.349       .  D
C162        H164   1.086       .  S
C165        H167   1.087       .  S
C165        C166   1.339       .  D
C166        H168   1.088       .  S
C166        C533   1.454       .  S
C169        H171   1.088       .  S
C169        C170   1.338       .  D
C170        H172   1.088       .  S
C173        H175   1.087       .  S
C173        C174   1.339       .  D
C174        H176   1.088       .  S
C177        H179   1.085       .  S
C177        C178   1.336       .  D
C178        H180   1.089       .  S
C181        H183   1.088       .  S
C181        C182   1.340       .  D
C182       H1016   1.082       .  S
C182        C901   1.454       .  S
H184        C598   1.086       .  S
C185        H187   1.087       .  S
C185        C186   1.349       .  D
C186        H188   1.081       .  S
C189        H191   1.087       .  S
C189        C190   1.344       .  D
C190        C256   1.537   1_554  S
C190        H192   1.087       .  S
C193        H195   1.087       .  S
C193        C194   1.355       .  D
C193        C458   1.480       .  S
C194        H196   1.087       .  S
C197        H199   1.086       .  S
C197        C198   1.332       .  D
C198        H200   1.091       .  S
C201        H203   1.087       .  S
C201        C202   1.341       .  D
C202        H204   1.087       .  S
C205        H207   1.087       .  S
C205        C206   1.340       .  D
C206        H208   1.088       .  S
C209        C210   1.544       .  S
C209        C215   1.540       .  S
C209        C213   1.525       .  S
C209        C413   1.511       .  S
C210        H217   1.086       .  S
C210        C211   1.372       .  D
C211        C212   1.537       .  S
C211        C742   1.477   1_655  S
C212        C216   1.537       .  S
C212        C214   1.540       .  S
C212        H218   1.111   1_655  S
C213        H219   1.087       .  S
C213        C214   1.356       .  D
C214        C276   1.470       .  S
C215        H220   1.086       .  S
C215        C216   1.368       .  D
C216        C322   1.471   1_655  S
C221        C222   1.543       .  S
C221        C227   1.526       .  S
C221        C225   1.543       .  S
C221        C409   1.511       .  S
C222        H229   1.086       .  S
C222        C223   1.367       .  D
C223        C224   1.534       .  S
C223       C1183   1.470       .  S
C224        C228   1.544       .  S
C224        C226   1.538       .  S
C224        H230   1.111       .  S
C225        H231   1.086       .  S
C225        C226   1.367       .  D
C226        C251   1.473       .  S
C227        H232   1.087       .  S
C227        C228   1.356       .  D
C228        C348   1.465       .  S
Zn233       O237   1.976       .  S
Zn233       O238   2.041       .  S
Zn233       O242   2.045       .  S
Zn233       O249   2.042       .  S
Zn234       O237   1.954       .  S
Zn234       O239   2.049       .  S
Zn234       O241   2.030   1_545  S
Zn234       O245   2.036   1_545  S
Zn235       O237   1.957       .  S
Zn235       O240   1.985       .  S
Zn235       O243   2.016       .  S
Zn235       O246   1.996       .  S
Zn236       O237   1.967       .  S
Zn236       O244   2.032       .  S
Zn236       O247   2.017       .  S
Zn236       O248   2.016       .  S
O238        C250   1.277   1_545  A
O239        C251   1.277       .  A
O240        C252   1.269       .  A
O241        C250   1.276       .  A
O242        C252   1.275       .  A
O243        C251   1.271       .  A
O244        C253   1.277       .  A
O245        C254   1.276       .  A
O246        C253   1.268       .  A
O247        C254   1.273   1_545  A
O248        C255   1.271       .  A
O249        C255   1.277       .  A
C250       C1233   1.481       .  S
C252        C405   1.465       .  S
C253        C283   1.477       .  S
C254       C1120   1.482       .  S
C255        C397   1.474       .  S
C256        C389   1.531       .  S
C256        C393   1.547       .  S
C256        C410   1.525       .  S
Zn257       O261   1.940       .  S
Zn257       O262   2.028       .  S
Zn257       O266   2.020       .  S
Zn257       O273   2.031       .  S
Zn258       O261   1.938       .  S
Zn258       O263   2.031       .  S
Zn258       O265   2.035       .  S
Zn258       O269   2.011       .  S
Zn259       O261   1.964       .  S
Zn259       O267   2.052       .  S
Zn259       O270   2.023       .  S
Zn260       O261   1.935       .  S
Zn260       O268   1.974       .  S
Zn260       O271   1.995       .  S
Zn260       O272   2.006       .  S
O262        C274   1.275       .  A
O263        C275   1.277       .  A
O264        C276   1.274       .  A
O265        C274   1.275       .  A
O267        C275   1.278       .  A
O268        C277   1.268       .  A
O269        C278   1.275       .  A
O270        C277   1.273       .  A
O271        C278   1.269       .  A
O272        C279   1.269       .  A
O273        C279   1.274       .  A
C274        C295   1.471   1_655  S
C275        C394   1.485       .  S
C277        C806   1.460       .  S
C278        C385   1.469       .  S
C279        C716   1.466   1_655  S
C280        C386   1.515       .  S
C280        C402   1.539       .  S
C280        C406   1.538       .  S
C280        C414   1.526       .  S
C281        C282   1.529       .  S
C281        C287   1.542       .  S
C281        C285   1.546       .  S
C281        C381   1.517       .  S
C282        H289   1.087       .  S
C282        C283   1.358       .  D
C283        C284   1.544       .  S
C284        C288   1.541       .  S
C284        C286   1.536       .  S
C284        H290   1.110       .  S
C285        H291   1.086       .  S
C285        C286   1.373       .  D
C286        C346   1.485       .  S
C287        H292   1.086       .  S
C287        C288   1.373       .  D
C288        C670   1.487       .  S
C293        C294   1.543       .  S
C293        C299   1.531       .  S
C293        C297   1.544       .  S
C293        C377   1.516       .  S
C294        H301   1.086       .  S
C294        C295   1.369       .  D
C295        C296   1.532       .  S
C296        C300   1.534       .  S
C296        C298   1.536       .  S
C296        H302   1.111   1_455  S
C297        H303   1.086       .  S
C297        C298   1.374       .  D
C298        C323   1.482       .  S
C299        H304   1.087       .  S
C299        C300   1.357       .  D
C300       C1111   1.457   1_445  S
Zn305       O309   1.953       .  S
Zn305       O310   2.029       .  S
Zn305       O314   2.040       .  S
Zn305       O321   2.047       .  S
Zn306       O309   1.947       .  S
Zn306       O311   2.031       .  S
Zn306       O313   2.031       .  S
Zn306       O317   2.030       .  S
Zn307       O309   1.960       .  S
Zn307       O312   1.971       .  S
Zn307       O318   2.010       .  S
Zn308       O309   1.948       .  S
Zn308       O316   1.995       .  S
Zn308       O319   2.012       .  S
Zn308       O320   2.026       .  S
O310        C322   1.275       .  A
O312        C324   1.266       .  A
O313        C322   1.275       .  A
O314        C324   1.277       .  A
O315        C323   1.272       .  A
O316        C325   1.271       .  A
O317        C326   1.275   1_545  A
O318        C325   1.273       .  A
O319        C326   1.272   1_545  A
O320        C327   1.274       .  A
O321        C327   1.276       .  A
C324        C370   1.457       .  S
C325       C1206   1.464   1_545  S
C326       C1043   1.466       .  S
C327        C365   1.486       .  S
C328        C357   1.523       .  S
C328        C361   1.531       .  S
C328        C366   1.535       .  S
C328        C378   1.528       .  S
Zn329       O333   1.951       .  S
Zn329       O334   2.040       .  S
Zn329       O338   2.020       .  S
Zn329       O345   2.048       .  S
Zn330       O333   1.959       .  S
Zn330       O335   2.006       .  S
Zn330       O337   2.025       .  S
Zn330       O341   1.992       .  S
Zn331       O333   1.956       .  S
Zn331       O336   2.019       .  S
Zn331       O339   2.000       .  S
Zn331       O342   2.038       .  S
Zn332       O333   1.956       .  S
Zn332       O340   2.021       .  S
Zn332       O343   2.042       .  S
Zn332       O344   2.022       .  S
O334        C346   1.277       .  A
O335        C347   1.273       .  A
O336        C348   1.274       .  A
O337        C346   1.273       .  A
O338        C348   1.273       .  A
O339        C347   1.271       .  A
O340        C349   1.273       .  A
O341        C350   1.269       .  A
O342        C349   1.275       .  A
O343        C350   1.277       .  A
O344        C351   1.274       .  A
O345        C351   1.278       .  A
C347        C358   1.466       .  S
C349        C353   1.480       .  S
C350        C778   1.464       .  S
C351        C639   1.474       .  S
C352        C369   1.528       .  S
C352        C373   1.526       .  S
C352        C382   1.528       .  S
C353        H355   1.087       .  S
C353        C354   1.347       .  D
C354        H356   1.088       .  S
C357        H359   1.087       .  S
C357        C358   1.345       .  D
C358        H360   1.087       .  S
C361        H363   1.088       .  S
C361        C362   1.343       .  D
C362        H364   1.086       .  S
C362       C1182   1.466       .  S
C365        H367   1.086       .  S
C365        C366   1.351       .  D
C366        H368   1.087       .  S
C369        H371   1.088       .  S
C369        C370   1.341       .  D
C370        H372   1.087       .  S
C373        H375   1.086       .  S
C373        C374   1.350       .  D
C374        H376   1.087       .  S
C374        C741   1.466       .  S
C377        H379   1.087       .  S
C377        C378   1.344       .  D
C378        H380   1.087       .  S
C381        H383   1.087       .  S
C381        C382   1.342       .  D
C382        H384   1.088       .  S
C385        H387   1.087       .  S
C385        C386   1.341       .  D
C386        H388   1.089       .  S
C389        H391   1.087       .  S
C389        C390   1.343       .  D
C390       H1224   1.081       .  S
C390       C1109   1.457   1_545  S
H392        C806   1.084       .  S
C393        H395   1.087       .  S
C393        C394   1.353       .  D
C394        H396   1.081       .  S
C397        H399   1.086       .  S
C397        C398   1.342       .  D
C398        H400   1.088       .  S
C401        H403   1.087       .  S
C401        C402   1.351       .  D
C401        C666   1.481       .  S
C402        H404   1.087       .  S
C405        H407   1.083       .  S
C405        C406   1.344       .  D
C406        H408   1.088       .  S
C409        H411   1.087       .  S
C409        C410   1.336       .  D
C410        H412   1.088       .  S
C413        H415   1.088       .  S
C413        C414   1.340       .  D
C414        H416   1.087       .  S
C417        C418   1.543       .  S
C417        C423   1.529       .  S
C417        C421   1.543       .  S
C417        C621   1.518       .  S
C418        H425   1.086       .  S
C418        C419   1.366       .  D
C419        C420   1.546       .  S
C419        C950   1.483   1_655  S
C420        C424   1.538   1_655  S
C420        C422   1.549       .  S
C420        H426   1.111   1_655  S
C421        H427   1.086       .  S
C421        C422   1.369       .  D
C422        C484   1.493       .  S
C423        H428   1.087       .  S
C423        C424   1.361   1_655  D
C424        C530   1.462       .  S
C429        C430   1.559       .  S
C429        C435   1.526       .  S
C429        C433   1.528       .  S
C429        C617   1.512       .  S
C430        H437   1.084       .  S
C430        C431   1.378       .  D
C431        C432   1.537       .  S
C432        C436   1.544       .  S
C432        C434   1.538       .  S
C432        H438   1.111       .  S
C433        H439   1.087       .  S
C433        C434   1.357       .  D
C434        C459   1.461       .  S
C435        H440   1.087       .  S
C435        C436   1.355       .  D
C436        C556   1.463       .  S
Zn441       O445   1.944       .  S
Zn441       O446   2.006       .  S
Zn441       O450   2.028       .  S
Zn441       O457   1.970       .  S
Zn442       O445   1.947       .  S
Zn442       O447   2.022       .  S
Zn442       O449   2.045       .  S
Zn442       O453   2.034       .  S
Zn443       O445   1.954       .  S
Zn443       O448   2.032       .  S
Zn443       O451   2.005       .  S
Zn443       O454   2.016       .  S
Zn444       O445   1.966       .  S
Zn444       O452   2.063       .  S
Zn444       O455   2.061       .  S
Zn444       O456   2.034       .  S
O446        C458   1.271       .  A
O447        C459   1.275       .  A
O448        C460   1.277       .  A
O449        C458   1.276       .  A
O450        C460   1.272       .  A
O451        C459   1.272       .  A
O452        C461   1.283       .  A
O453        C462   1.275       .  A
O454        C461   1.272       .  A
O455        C462   1.278       .  A
O456        C463   1.276       .  A
O457        C463   1.268       .  A
C460        C613   1.479       .  S
C461        C491   1.487       .  S
C463        C605   1.458       .  S
C464        C597   1.520       .  S
C464        C601   1.539       .  S
C464        C814   1.531       .  S
C464        C618   1.529       .  S
Zn465       O469   1.954       .  S
Zn465       O470   2.033       .  S
Zn465       O474   2.042       .  S
Zn465       O481   2.051       .  S
Zn466       O469   1.955       .  S
Zn466       O471   2.060       .  S
Zn466       O473   2.031       .  S
Zn466       O477   2.028       .  S
Zn467       O469   1.961       .  S
Zn467       O680   1.994       .  S
Zn467       O475   1.988       .  S
Zn467       O478   1.967       .  S
Zn468       O469   1.952       .  S
Zn468       O476   2.026       .  S
Zn468       O479   2.012       .  S
Zn468       O480   2.037       .  S
O470        C482   1.276       .  A
O471        C483   1.278       .  A
O472       Zn675   2.060   1_554  S
O472        C484   1.280       .  A
O473        C482   1.276       .  A
O474        C692   1.278       .  A
O475        C483   1.269       .  A
O476        C485   1.277       .  A
O477        C486   1.276       .  A
O478        C485   1.263       .  A
O479        C486   1.273       .  A
O480        C487   1.274       .  A
O481        C487   1.276       .  A
C482        C503   1.471   1_655  S
C483        C602   1.482       .  S
C484        O682   1.275   1_554  A
C485       C1014   1.465       .  S
C486        C593   1.475       .  S
C487        C924   1.480   1_655  S
C488        C594   1.530       .  S
C488        C610   1.524       .  S
C488        C614   1.525       .  S
C488        C622   1.531       .  S
C489        C490   1.532       .  S
C489        C495   1.540       .  S
C489        C493   1.547       .  S
C489        C589   1.520       .  S
C490        H497   1.087       .  S
C490        C491   1.359       .  D
C491        C492   1.550       .  S
C492        C496   1.543       .  S
C492        C494   1.539       .  S
C492        H498   1.110       .  S
C493        H499   1.086       .  S
C493        C494   1.375       .  D
C494        C554   1.493       .  S
C495        H500   1.086       .  S
C495        C496   1.370       .  D
C496        C878   1.483       .  S
C501        C502   1.543       .  S
C501        C507   1.534       .  S
C501        C505   1.544       .  S
C501        C585   1.521       .  S
C502        H509   1.086       .  S
C502        C503   1.369       .  D
C503        C504   1.533       .  S
C504        C508   1.530       .  S
C504        C506   1.537       .  S
C504        H510   1.111   1_455  S
C505        H511   1.086       .  S
C505        C506   1.373       .  D
C506        C531   1.484       .  S
C507        H512   1.087       .  S
C507        C508   1.360       .  D
Zn513       O517   1.972       .  S
Zn513       O518   2.038       .  S
Zn513       O522   2.072       .  S
Zn513       O529   2.086       .  S
Zn514       O517   1.947       .  S
Zn514       O519   2.008   1_554  S
Zn514       O521   1.997       .  S
Zn514       O525   2.027       .  S
Zn515       O517   1.965       .  S
Zn515       O520   2.006       .  S
Zn515       O731   2.023   1_554  S
Zn515       O526   2.019       .  S
Zn516       O517   1.937       .  S
Zn516       O524   1.952       .  S
Zn516       O527   2.006       .  S
Zn516       O528   1.994       .  S
O518        C530   1.276       .  A
O519        C739   1.272       .  A
O520        C532   1.271       .  A
O521        C530   1.272       .  A
O522        C532   1.281       .  A
O523       Zn723   2.013       .  S
O523        C531   1.272       .  A
O524        C533   1.265       .  A
O525        C534   1.273       .  A
O526        C533   1.274       .  A
O527        C534   1.269       .  A
O528        C535   1.269       .  A
O529        C535   1.282       .  A
C531        O727   1.276       .  A
C532        C578   1.476       .  S
C535        C573   1.486       .  S
C536        C565   1.518       .  S
C536        C569   1.544       .  S
C536        C574   1.539       .  S
C536        C586   1.531       .  S
Zn537       O541   1.957       .  S
Zn537       O542   2.067       .  S
Zn537       O546   2.015       .  S
Zn537       O553   2.068       .  S
Zn538       O541   1.960       .  S
Zn538       O543   1.996       .  S
Zn538       O545   2.022       .  S
Zn538       O549   1.988       .  S
Zn539       O541   1.966       .  S
Zn539       O544   2.019       .  S
Zn539       O547   2.002       .  S
Zn539       O550   2.051       .  S
Zn540       O541   1.951       .  S
Zn540       O548   2.031       .  S
Zn540       O551   2.021       .  S
Zn540       O552   2.006       .  S
O542        C554   1.279       .  A
O543        C555   1.273       .  A
O544        C556   1.274       .  A
O545        C554   1.272       .  A
O546        C556   1.274       .  A
O547        C555   1.270       .  A
O548        C557   1.273       .  A
O549        C558   1.268       .  A
O550        C557   1.277       .  A
O551        C558   1.275       .  A
O552        C559   1.272       .  A
O553        C559   1.280       .  A
C555        C566   1.467       .  S
C557        C561   1.488       .  S
C558        C986   1.459       .  S
C559        C847   1.475       .  S
C560        C770   1.544       .  S
C560        C577   1.541       .  S
C560        C581   1.520       .  S
C560        C590   1.530       .  S
C561        H563   1.086       .  S
C561        C562   1.348       .  D
C562        C768   1.536       .  S
C562        H564   1.088       .  S
C565        H567   1.088       .  S
C565        C566   1.344       .  D
C566        H568   1.087       .  S
C569        H571   1.088       .  S
C569        C570   1.350       .  D
C570        H572   1.086       .  S
C573        H575   1.085       .  S
C573        C574   1.344       .  D
C574        H576   1.088       .  S
C577        H579   1.088       .  S
C577        C578   1.345       .  D
C578        H580   1.086       .  S
C581        H583   1.088       .  S
C581        C582   1.347       .  D
C582        H584   1.087       .  S
C582        C949   1.468       .  S
C585        H587   1.087       .  S
C585        C586   1.345       .  D
C586        H588   1.088       .  S
C589        H591   1.087       .  S
C589        C590   1.345       .  D
C590        H592   1.088       .  S
C593        H595   1.085       .  S
C593        C594   1.348       .  D
C594        H596   1.088       .  S
C597        H599   1.087       .  S
C597        C598   1.340       .  D
H600       C1014   1.086       .  S
C601        H603   1.088       .  S
C601        C602   1.358       .  D
C602        H604   1.083       .  S
C605        H607   1.083       .  S
C605        C606   1.338   1_554  D
C606        C672   1.525       .  S
C606        H608   1.089   1_556  S
C609        H611   1.086       .  S
C609        C610   1.346       .  D
C609        C874   1.469       .  S
C610        H612   1.087       .  S
C613        H615   1.086       .  S
C613        C614   1.344       .  D
C614        H616   1.089       .  S
C617        H619   1.085       .  S
C617        C618   1.338       .  D
C618        H620   1.084       .  S
C621        H623   1.086       .  S
C621        C622   1.339       .  D
C622        H624   1.088       .  S
C625        C626   1.539       .  S
C625        C631   1.527       .  S
C625        C629   1.543       .  S
C625        C829   1.509       .  S
C626        H633   1.086       .  S
C626        C627   1.364       .  D
C627        C628   1.534       .  S
C627       C1158   1.465   1_655  S
C628        C632   1.529   1_655  S
C628        C630   1.532       .  S
C628        H634   1.111   1_655  S
C629        H635   1.086       .  S
C629        C630   1.374       .  D
C630        C692   1.476       .  S
C631        H636   1.087       .  S
C631        C632   1.357   1_655  D
C632        C738   1.451       .  S
C637        C638   1.547       .  S
C637        C643   1.529       .  S
C637        C641   1.538       .  S
C637        C825   1.511       .  S
C638        H645   1.086       .  S
C638        C639   1.370       .  D
C639        C640   1.532       .  S
C640        C644   1.541       .  S
C640        C642   1.537       .  S
C640        H646   1.111       .  S
C641        H647   1.086       .  S
C641        C642   1.365       .  D
C642        C667   1.467       .  S
C643        H648   1.087       .  S
C643        C644   1.357       .  D
C644        C764   1.465       .  S
Zn649       O653   1.948       .  S
Zn649       O654   2.014       .  S
Zn649       O658   2.022       .  S
Zn649       O665   1.992       .  S
Zn650       O653   1.947       .  S
Zn650       O655   2.031       .  S
Zn650       O657   2.039       .  S
Zn650       O661   2.030       .  S
Zn651       O653   1.954       .  S
Zn651       O656   2.016       .  S
Zn651       O659   2.017       .  S
Zn651       O662   2.017       .  S
Zn652       O653   1.964       .  S
Zn652       O660   2.044       .  S
Zn652       O663   2.043       .  S
Zn652       O664   2.041       .  S
O654        C666   1.273       .  A
O655        C667   1.276       .  A
O656        C668   1.274       .  A
O657        C666   1.275       .  A
O658        C668   1.272       .  A
O659        C667   1.273       .  A
O660        C669   1.279       .  A
O661        C670   1.276       .  A
O662        C669   1.271       .  A
O663        C670   1.276       .  A
O664        C671   1.276       .  A
O665        C671   1.270       .  A
C668        C821   1.467       .  S
C669        C699   1.486       .  S
C671        C813   1.466       .  S
C672        C805   1.537       .  S
C672        C809   1.530       .  S
C672        C826   1.528       .  S
Zn673       O677   1.958       .  S
Zn673       O678   2.056       .  S
Zn673       O682   2.039       .  S
Zn673       O689   2.024       .  S
Zn674       O677   1.949       .  S
Zn674       O679   1.978       .  S
Zn674       O681   2.024       .  S
Zn674       O685   2.002       .  S
Zn675       O677   1.985       .  S
Zn675       O683   2.049       .  S
Zn675       O686   2.040       .  S
Zn676       O677   1.954       .  S
Zn676       O684   1.976       .  S
Zn676       O687   2.025       .  S
Zn676       O688   1.991       .  S
O678        C690   1.279       .  A
O679        C691   1.269       .  A
O680        C692   1.271       .  A
O681        C690   1.273       .  A
O683        C691   1.278       .  A
O684        C693   1.268       .  A
O685        C694   1.269       .  A
O686        C693   1.274       .  A
O687        C694   1.270       .  A
O688        C695   1.269       .  A
O689        C695   1.275       .  A
C690        C711   1.477   1_655  S
C691        C810   1.471       .  S
C693       C1222   1.466       .  S
C694        C801   1.465       .  S
C695       C1132   1.458   1_655  S
C696        C802   1.529       .  S
C696        C818   1.524       .  S
C696        C822   1.531       .  S
C696        C830   1.524       .  S
C697        C698   1.531       .  S
C697        C703   1.539       .  S
C697        C701   1.546       .  S
C697        C797   1.516       .  S
C698        H705   1.087       .  S
C698        C699   1.360       .  D
C699        C700   1.548       .  S
C700        C704   1.540       .  S
C700        C702   1.540       .  S
C700        H706   1.110       .  S
C701        H707   1.086       .  S
C701        C702   1.374       .  D
C702        C762   1.491       .  S
C703        H708   1.086       .  S
C703        C704   1.368       .  D
C704       C1086   1.478       .  S
C709        C710   1.546       .  S
C709        C715   1.531       .  S
C709        C713   1.543       .  S
C709        C793   1.519       .  S
C710        H717   1.086       .  S
C710        C711   1.370       .  D
C711        C712   1.534       .  S
C712        C716   1.536       .  S
C712        C714   1.538       .  S
C712        H718   1.111       .  S
C713        H719   1.086       .  S
C713        C714   1.371       .  D
C714        C739   1.478       .  S
C715        H720   1.087       .  S
C715        C716   1.358       .  D
Zn721       O725   1.953       .  S
Zn721       O726   1.989       .  S
Zn721       O730   2.017       .  S
Zn721       O737   2.013       .  S
Zn722       O725   1.942       .  S
Zn722       O727   2.044       .  S
Zn722       O729   2.003       .  S
Zn722       O733   2.029       .  S
Zn723       O725   1.955       .  S
Zn723       O728   1.989       .  S
Zn723       O734   1.990       .  S
Zn724       O725   1.960       .  S
Zn724       O732   2.023       .  S
Zn724       O735   2.050       .  S
Zn724       O736   2.055       .  S
O726        C738   1.269       .  A
O728        C740   1.267       .  A
O729        C738   1.273       .  A
O730        C740   1.273       .  A
O731        C739   1.273       .  A
O732        C741   1.276       .  A
O733        C742   1.275       .  A
O734        C741   1.273       .  A
O735        C742   1.277       .  A
O736        C743   1.277       .  A
O737        C743   1.271       .  A
C740        C786   1.460       .  S
C743        C781   1.484       .  S
C744        C773   1.526       .  S
C744        C777   1.530       .  S
C744        C782   1.536       .  S
C744        C794   1.530       .  S
Zn745       O749   1.962       .  S
Zn745       O750   2.047       .  S
Zn745       O754   2.027       .  S
Zn745       O761   2.047       .  S
Zn746       O749   1.972       .  S
Zn746       O751   2.016       .  S
Zn746       O753   2.034       .  S
Zn746       O757   2.017       .  S
Zn747       O749   1.947       .  S
Zn747       O752   2.011       .  S
Zn747       O755   1.976       .  S
Zn747       O758   2.015       .  S
Zn748       O749   1.977       .  S
Zn748       O756   2.090       .  S
Zn748       O759   2.075       .  S
Zn748       O760   2.054       .  S
O750        C762   1.277       .  A
O751        C763   1.273       .  A
O752        C764   1.271       .  A
O753        C762   1.274       .  A
O754        C764   1.273       .  A
O755        C763   1.268       .  A
O756        C765   1.282       .  A
O757        C766   1.273       .  A
O758        C765   1.272       .  A
O759        C766   1.282       .  A
O760        C767   1.278       .  A
O761        C767   1.279       .  A
C763        C774   1.460       .  S
C765        C769   1.493       .  S
C766       C1194   1.480       .  S
C767       C1055   1.481       .  S
C768        C785   1.525       .  S
C768        C789   1.531       .  S
C768        C798   1.528       .  S
C769        H771   1.085       .  S
C769        C770   1.349   1_556  D
C770        H772   1.088   1_554  S
C773        H775   1.087       .  S
C773        C774   1.344       .  D
C774        H776   1.088       .  S
C777        H779   1.088       .  S
C777        C778   1.346       .  D
C778        H780   1.087       .  S
C781        H783   1.086       .  S
C781        C782   1.346       .  D
C782        H784   1.088       .  S
C785        H787   1.089       .  S
C785        C786   1.341       .  D
C786        H788   1.086       .  S
C789        H791   1.086       .  S
C789        C790   1.348       .  D
C790        H792   1.088       .  S
C790       C1157   1.469       .  S
C793        H795   1.087       .  S
C793        C794   1.342       .  D
C794        H796   1.088       .  S
C797        H799   1.087       .  S
C797        C798   1.345       .  D
C798        H800   1.087       .  S
C801        H803   1.084       .  S
C801        C802   1.345       .  D
C802        H804   1.088       .  S
C805        H807   1.087       .  S
C805        C806   1.345       .  D
H808       C1222   1.081       .  S
C809        H811   1.088       .  S
C809        C810   1.341       .  D
C810        H812   1.083       .  S
C813        H815   1.081       .  S
C813        C814   1.347       .  D
C814        H816   1.088       .  S
C817        H819   1.085       .  S
C817        C818   1.345       .  D
C817       C1082   1.473       .  S
C818        H820   1.087       .  S
C821        H823   1.086       .  S
C821        C822   1.340       .  D
C822        H824   1.088       .  S
C825        H827   1.087       .  S
C825        C826   1.339       .  D
C826        H828   1.086       .  S
C829        H831   1.087       .  S
C829        C830   1.337       .  D
C830        H832   1.088       .  S
C833        C834   1.547       .  S
C833        C839   1.528       .  S
C833        C837   1.532       .  S
C833       C1037   1.508       .  S
C834        H841   1.084       .  S
C834        C835   1.370       .  D
C835        C836   1.548       .  S
C836        C840   1.538       .  S
C836        C838   1.545       .  S
C836        H842   1.111   1_655  S
C837        H843   1.087       .  S
C837        C838   1.363       .  D
C838        C900   1.480       .  S
C839        H844   1.087       .  S
C839        C840   1.357       .  D
C840        C946   1.463   1_655  S
C845        C846   1.555       .  S
C845        C851   1.533       .  S
C845        C849   1.537       .  S
C845       C1033   1.518       .  S
C846        H853   1.084       .  S
C846        C847   1.376       .  D
C847        C848   1.532       .  S
C848        C852   1.543       .  S
C848        C850   1.534       .  S
C848        H854   1.112       .  S
C849        H855   1.087       .  S
C849        C850   1.362       .  D
C850        C875   1.469       .  S
C851        H856   1.087       .  S
C851        C852   1.358       .  D
C852        C972   1.474       .  S
Zn857       O861   1.928       .  S
Zn857       O862   1.971       .  S
Zn857       O866   2.004       .  S
Zn857       O873   1.991       .  S
Zn858       O861   1.944       .  S
Zn858       O863   2.034       .  S
Zn858       O865   2.018       .  S
Zn858       O869   2.015       .  S
Zn859       O861   1.935       .  S
Zn859       O864   1.988       .  S
Zn859       O867   2.012       .  S
Zn859       O870   1.966       .  S
Zn860       O861   1.956       .  S
Zn860       O868   2.050       .  S
Zn860       O871   2.043       .  S
Zn860       O872   2.069       .  S
O862        C874   1.272       .  A
O863        C875   1.275       .  A
O864        C876   1.268       .  A
O865        C874   1.272       .  A
O866        C876   1.269       .  A
O867        C875   1.271       .  A
O868        C877   1.282       .  A
O869        C878   1.274       .  A
O870        C877   1.266       .  A
O871        C878   1.276       .  A
O872        C879   1.280       .  A
O873        C879   1.270       .  A
C876       C1029   1.455       .  S
C877        C907   1.473       .  S
C879       C1021   1.479       .  S
C880       C1013   1.524       .  S
C880       C1017   1.540       .  S
C880       C1230   1.531       .  S
C880       C1034   1.541       .  S
Zn881       O885   1.944       .  S
Zn881       O886   2.010       .  S
Zn881       O890   2.041       .  S
Zn881       O897   2.059   1_655  S
Zn882       O885   1.934       .  S
Zn882       O887   2.011       .  S
Zn882       O889   2.015       .  S
Zn882       O893   2.016       .  S
Zn883       O885   1.963       .  S
Zn883      O1096   2.017       .  S
Zn883       O891   2.041       .  S
Zn883       O894   2.015       .  S
Zn884       O885   1.927       .  S
Zn884       O892   1.963   1_565  S
Zn884       O895   1.977       .  S
Zn884       O896   1.983   1_565  S
O886        C898   1.273       .  A
O887        C899   1.273       .  A
O888      Zn1091   2.024   1_554  S
O888        C900   1.277       .  A
O889        C898   1.273       .  A
O890       C1108   1.278       .  A
O891        C899   1.275       .  A
O892        C901   1.267       .  A
O893        C902   1.274       .  A
O894        C901   1.273   1_565  A
O895        C902   1.265       .  A
O896        C903   1.268       .  A
O897        C903   1.277   1_465  A
C898        C919   1.461   1_655  S
C899       C1018   1.476       .  S
C900       O1098   1.273   1_554  A
C902       C1009   1.468       .  S
C904       C1010   1.515       .  S
C904       C1026   1.526       .  S
C904       C1030   1.533       .  S
C904       C1038   1.530       .  S
C905        C906   1.526       .  S
C905        C911   1.544       .  S
C905        C909   1.547       .  S
C905       C1005   1.512       .  S
C906        H913   1.087       .  S
C906        C907   1.353       .  D
C907        C908   1.547       .  S
C908        C912   1.540       .  S
C908        C910   1.542       .  S
C908        H914   1.110       .  S
C909        H915   1.086       .  S
C909        C910   1.373       .  D
C910        C970   1.495       .  S
C911        H916   1.086       .  S
C911        C912   1.372       .  D
C917        C918   1.529       .  S
C917        C923   1.548       .  S
C917        C921   1.545       .  S
C917       C1001   1.530       .  S
C918        H925   1.087       .  S
C918        C919   1.357       .  D
C919        C920   1.535       .  S
C920        C924   1.536       .  S
C920        C922   1.539       .  S
C920        H926   1.111   1_455  S
C921        H927   1.086       .  S
C921        C922   1.374       .  D
C922        C947   1.486       .  S
C923        H928   1.086       .  S
C923        C924   1.374       .  D
Zn929       O933   1.966       .  S
Zn929       O934   2.017       .  S
Zn929       O938   2.043       .  S
Zn929       O945   2.053       .  S
Zn930       O933   1.964       .  S
Zn930       O935   2.053       .  S
Zn930       O937   2.023       .  S
Zn930       O941   2.048       .  S
Zn931       O933   1.956       .  S
Zn931       O936   1.986       .  S
Zn931      O1147   2.024   1_554  S
Zn931       O942   1.986       .  S
Zn932       O933   1.973       .  S
Zn932       O940   2.017       .  S
Zn932       O943   2.051       .  S
Zn932       O944   2.074       .  S
O934        C946   1.274       .  A
O935       C1155   1.275   1_554  A
O936        C948   1.267       .  A
O937        C946   1.277       .  A
O938        C948   1.276       .  A
O939      Zn1139   2.011       .  S
O939        C947   1.271       .  A
O940        C949   1.274       .  A
O941        C950   1.277       .  A
O942        C949   1.273       .  A
O943        C950   1.278       .  A
O944        C951   1.279       .  A
O945        C951   1.276       .  A
C947       O1143   1.276       .  A
C948        C994   1.465       .  S
C951        C989   1.499       .  S
C952        C981   1.547       .  S
C952        C985   1.525       .  S
C952        C990   1.549       .  S
C952       C1002   1.539       .  S
Zn953       O957   1.971       .  S
Zn953       O958   2.043       .  S
Zn953       O962   2.020       .  S
Zn953       O969   2.083       .  S
Zn954       O957   1.992       .  S
Zn954       O959   2.058       .  S
Zn954       O961   2.061       .  S
Zn954       O965   2.034       .  S
Zn955       O957   1.974       .  S
Zn955       O960   2.057       .  S
Zn955       O963   2.047       .  S
Zn955       O966   2.082       .  S
Zn956       O957   1.953       .  S
Zn956       O964   2.005       .  S
Zn956       O967   1.983   1_565  S
Zn956       O968   1.987   1_565  S
O958        C970   1.277       .  A
O959        C971   1.278       .  A
O960        C972   1.279       .  A
O961        C970   1.278       .  A
O962        C972   1.274       .  A
O963        C971   1.278       .  A
O964        C973   1.271       .  A
O965        C974   1.275   1_565  A
O966        C973   1.281       .  A
O967        C974   1.270       .  A
O968        C975   1.265       .  A
O969        C975   1.280   1_565  A
C971        C982   1.492       .  S
C973        C977   1.487       .  S
C976       C1186   1.536       .  S
C976        C993   1.530       .  S
C976        C997   1.520       .  S
C976       C1006   1.525       .  S
C977        H979   1.087       .  S
C977        C978   1.346       .  D
C978       C1184   1.540       .  S
C978        H980   1.088       .  S
C981        H983   1.085       .  S
C981        C982   1.356       .  D
C982        H984   1.087       .  S
C985        H987   1.089       .  S
C985        C986   1.339       .  D
C986        H988   1.086       .  S
C989        H991   1.085       .  S
C989        C990   1.355       .  D
C990        H992   1.088       .  S
C993        H995   1.088       .  S
C993        C994   1.343       .  D
C994        H996   1.087       .  S
C997        H999   1.087       .  S
C997        C998   1.344       .  D
C998       H1000   1.088       .  S
C1001      H1003   1.086       .  S
C1001      C1002   1.340       .  D
C1002      H1004   1.087       .  S
C1005      H1007   1.088       .  S
C1005      C1006   1.339       .  D
C1006      H1008   1.088       .  S
C1009      H1011   1.087       .  S
C1009      C1010   1.338       .  D
C1010      H1012   1.088       .  S
C1013      H1015   1.089       .  S
C1013      C1014   1.333       .  D
C1017      H1019   1.087       .  S
C1017      C1018   1.354       .  D
C1018      H1020   1.088       .  S
C1021      H1023   1.087       .  S
C1021      C1022   1.347   1_554  D
C1022      C1088   1.536       .  S
C1022      H1024   1.087   1_556  S
C1025      H1027   1.086       .  S
C1025      C1026   1.352       .  D
C1026      H1028   1.088       .  S
C1029      H1031   1.085       .  S
C1029      C1030   1.341       .  D
C1030      H1032   1.089       .  S
C1033      H1035   1.083       .  S
C1033      C1034   1.347       .  D
C1034      H1036   1.084       .  S
C1037      H1039   1.085       .  S
C1037      C1038   1.345       .  D
C1038      H1040   1.084       .  S
C1041      C1042   1.530       .  S
C1041      C1047   1.537       .  S
C1041      C1045   1.536       .  S
C1041      C1245   1.509       .  S
C1042      H1049   1.087       .  S
C1042      C1043   1.358   1_655  D
C1043      C1044   1.541       .  S
C1044      C1048   1.548       .  S
C1044      C1046   1.543   1_455  S
C1044      H1050   1.111       .  S
C1045      H1051   1.086       .  S
C1045      C1046   1.368       .  D
C1046      C1108   1.482       .  S
C1047      H1052   1.086       .  S
C1047      C1048   1.367   1_655  D
C1048      C1154   1.479       .  S
C1053      C1054   1.546       .  S
C1053      C1059   1.526       .  S
C1053      C1057   1.542       .  S
C1053      C1241   1.515       .  S
C1054      H1061   1.086       .  S
C1054      C1055   1.372       .  D
C1055      C1056   1.540       .  S
C1056      C1060   1.548       .  S
C1056      C1058   1.542       .  S
C1056      H1062   1.111       .  S
C1057      H1063   1.086       .  S
C1057      C1058   1.368       .  D
C1058      C1083   1.480       .  S
C1059      H1064   1.087       .  S
C1059      C1060   1.354       .  D
C1060      C1180   1.468       .  S
Zn1065     O1069   1.939       .  S
Zn1065     O1070   1.994       .  S
Zn1065     O1074   1.983       .  S
Zn1065     O1081   2.028       .  S
Zn1066     O1069   1.941       .  S
Zn1066     O1071   2.047       .  S
Zn1066     O1073   2.018       .  S
Zn1066     O1077   2.008       .  S
Zn1067     O1069   1.951       .  S
Zn1067     O1072   2.007       .  S
Zn1067     O1075   2.038       .  S
Zn1067     O1078   2.004       .  S
Zn1068     O1069   1.932       .  S
Zn1068     O1076   2.003       .  S
Zn1068     O1079   2.036       .  S
Zn1068     O1080   2.038       .  S
O1070      C1082   1.276       .  A
O1071      C1083   1.276       .  A
O1072      C1084   1.274       .  A
O1073      C1082   1.273       .  A
O1074      C1084   1.267       .  A
O1075      C1083   1.274       .  A
O1076      C1085   1.277       .  A
O1077      C1086   1.274       .  A
O1078      C1085   1.271       .  A
O1079      C1086   1.277       .  A
O1080      C1087   1.273       .  A
O1081      C1087   1.274       .  A
C1084      C1237   1.455       .  S
C1085      C1115   1.470       .  S
C1087      C1229   1.486       .  S
C1088      C1221   1.534       .  S
C1088      C1225   1.542       .  S
C1088      C1242   1.530       .  S
Zn1089     O1093   1.949       .  S
Zn1089     O1094   2.023       .  S
Zn1089     O1098   2.020       .  S
Zn1089     O1105   2.019       .  S
Zn1090     O1093   1.950       .  S
Zn1090     O1095   2.035       .  S
Zn1090     O1097   2.052       .  S
Zn1090     O1101   2.040       .  S
Zn1091     O1093   1.962       .  S
Zn1091     O1099   2.029       .  S
Zn1091     O1102   2.021       .  S
Zn1092     O1093   1.935       .  S
Zn1092     O1100   1.958       .  S
Zn1092     O1103   1.981       .  S
Zn1092     O1104   1.988   1_565  S
O1094      C1106   1.274       .  A
O1095      C1107   1.277       .  A
O1096      C1108   1.277       .  A
O1097      C1106   1.277       .  A
O1099      C1107   1.277       .  A
O1100      C1109   1.265       .  A
O1101      C1110   1.278       .  A
O1102      C1109   1.271       .  A
O1103      C1110   1.266       .  A
O1104      C1111   1.268   1_545  A
O1105      C1111   1.273       .  A
C1106      C1127   1.476   1_655  S
C1107      C1226   1.481       .  S
C1110      C1217   1.472       .  S
C1112      C1218   1.522       .  S
C1112      C1234   1.540       .  S
C1112      C1238   1.514       .  S
C1112      C1246   1.520       .  S
C1113      C1114   1.523       .  S
C1113      C1119   1.540       .  S
C1113      C1117   1.544       .  S
C1113      C1213   1.511       .  S
C1114      H1121   1.087       .  S
C1114      C1115   1.355       .  D
C1115      C1116   1.541       .  S
C1116      C1120   1.537       .  S
C1116      C1118   1.537       .  S
C1116      H1122   1.110       .  S
C1117      H1123   1.086       .  S
C1117      C1118   1.373       .  D
C1118      C1178   1.481       .  S
C1119      H1124   1.086       .  S
C1119      C1120   1.372       .  D
C1125      C1126   1.539       .  S
C1125      C1131   1.527       .  S
C1125      C1129   1.544       .  S
C1125      C1209   1.513       .  S
C1126      H1133   1.086       .  S
C1126      C1127   1.366       .  D
C1127      C1128   1.541       .  S
C1128      C1132   1.539       .  S
C1128      C1130   1.543       .  S
C1128      H1134   1.111   1_455  S
C1129      H1135   1.086       .  S
C1129      C1130   1.374       .  D
C1130      C1155   1.490       .  S
C1131      H1136   1.087       .  S
C1131      C1132   1.356       .  D
Zn1137     O1141   1.979       .  S
Zn1137     O1142   2.050       .  S
Zn1137     O1146   2.053       .  S
Zn1137     O1153   2.089       .  S
Zn1138     O1141   1.965       .  S
Zn1138     O1143   2.050       .  S
Zn1138     O1145   2.038       .  S
Zn1138     O1149   2.048       .  S
Zn1139     O1141   1.967       .  S
Zn1139     O1144   1.967       .  S
Zn1139     O1150   2.028       .  S
Zn1140     O1141   1.943       .  S
Zn1140     O1148   1.991       .  S
Zn1140     O1151   1.994       .  S
Zn1140     O1152   1.998       .  S
O1142      C1154   1.277       .  A
O1144      C1156   1.266       .  A
O1145      C1154   1.277       .  A
O1146      C1156   1.279       .  A
O1147      C1155   1.272       .  A
O1148      C1157   1.269       .  A
O1149      C1158   1.278       .  A
O1150      C1157   1.273       .  A
O1151      C1158   1.270       .  A
O1152      C1159   1.269       .  A
O1153      C1159   1.282       .  A
C1156      C1202   1.461       .  S
C1159      C1197   1.488       .  S
C1160      C1189   1.511       .  S
C1160      C1193   1.543       .  S
C1160      C1198   1.538       .  S
C1160      C1210   1.525       .  S
Zn1161     O1165   1.949       .  S
Zn1161     O1166   2.025       .  S
Zn1161     O1170   2.022       .  S
Zn1161     O1177   2.042       .  S
Zn1162     O1165   1.950       .  S
Zn1162     O1167   1.979       .  S
Zn1162     O1169   2.018       .  S
Zn1162     O1173   1.993       .  S
Zn1163     O1165   1.963       .  S
Zn1163     O1168   2.024       .  S
Zn1163     O1171   1.997       .  S
Zn1163     O1174   2.045       .  S
Zn1164     O1165   1.955       .  S
Zn1164     O1172   2.032       .  S
Zn1164     O1175   2.043   1_565  S
Zn1164     O1176   2.017   1_565  S
O1166      C1178   1.274       .  A
O1167      C1179   1.272       .  A
O1168      C1180   1.274       .  A
O1169      C1178   1.271       .  A
O1170      C1180   1.273       .  A
O1171      C1179   1.270       .  A
O1172      C1181   1.274       .  A
O1173      C1182   1.269   1_565  A
O1174      C1181   1.277       .  A
O1175      C1182   1.277       .  A
O1176      C1183   1.273       .  A
O1177      C1183   1.278   1_565  A
C1179      C1190   1.462       .  S
C1181      C1185   1.485       .  S
C1184      C1201   1.528       .  S
C1184      C1205   1.524       .  S
C1184      C1214   1.525       .  S
C1185      H1187   1.086       .  S
C1185      C1186   1.348   1_556  D
C1186      H1188   1.088   1_554  S
C1189      H1191   1.089       .  S
C1189      C1190   1.343       .  D
C1190      H1192   1.087       .  S
C1193      H1195   1.088       .  S
C1193      C1194   1.348       .  D
C1194      H1196   1.086       .  S
C1197      H1199   1.085       .  S
C1197      C1198   1.344       .  D
C1198      H1200   1.088       .  S
C1201      H1203   1.088       .  S
C1201      C1202   1.338       .  D
C1202      H1204   1.087       .  S
C1205      H1207   1.087       .  S
C1205      C1206   1.346       .  D
C1206      H1208   1.088       .  S
C1209      H1211   1.087       .  S
C1209      C1210   1.340       .  D
C1210      H1212   1.088       .  S
C1213      H1215   1.088       .  S
C1213      C1214   1.338       .  D
C1214      H1216   1.088       .  S
C1217      H1219   1.085       .  S
C1217      C1218   1.338       .  D
C1218      H1220   1.089       .  S
C1221      H1223   1.087       .  S
C1221      C1222   1.344       .  D
C1225      H1227   1.087       .  S
C1225      C1226   1.350       .  D
C1226      H1228   1.081       .  S
C1229      H1231   1.086       .  S
C1229      C1230   1.349       .  D
C1230      H1232   1.088       .  S
C1233      H1235   1.087       .  S
C1233      C1234   1.351       .  D
C1234      H1236   1.087       .  S
C1237      H1239   1.086       .  S
C1237      C1238   1.334       .  D
C1238      H1240   1.090       .  S
C1241      H1243   1.087       .  S
C1241      C1242   1.340       .  D
C1242      H1244   1.087       .  S
C1245      H1247   1.087       .  S
C1245      C1246   1.343       .  D
C1246      H1248   1.088       .  S
