geometry optimzed in LAMMPS
_audit_creation_date              2020-11-30 
_audit_creation_method            'lammps2cif' 
_symmetry_space_group_name_H-M    'P1' 
_symmetry_Int_Tables_number       1 
_symmetry_cell_setting            triclinic 
loop_ 
_symmetry_equiv_pos_as_xyz 
  x,y,z 
_cell_length_a                    45.17881843 
_cell_length_b                    45.1753767932958 
_cell_length_c                    44.71687671144221 
_cell_angle_alpha                 90.36192282208236 
_cell_angle_beta                  89.63141580679817 
_cell_angle_gamma                 91.78234719069206 
loop_ 
_atom_site_label 
_atom_site_type_symbol 
_atom_site_fract_x 
_atom_site_fract_y 
_atom_site_fract_z 
_atom_site_charge 
N1          N  0.99915661  0.21817202  0.03302445    -0.33900
N2          N  0.50151263  0.21838461  0.46598323    -0.54500
N3          N  0.49870611  0.28174312  0.46700451    -0.33900
N4          N  0.99986231  0.28186938  0.03382370    -0.54500
C5          C  0.50735949  0.19052383  0.02704632     0.29600
C6          C  0.00432854  0.22311171  0.06259063     0.29600
C7          C  0.50503112  0.27708809  0.43759738     0.29600
C8          C  0.00484502  0.31102605  0.47258411     0.29600
C9          C  0.49688297  0.18916328  0.47122395     0.38300
C10         C  0.49605522  0.22267581  0.43656296     0.38300
C11         C  0.99666835  0.27742698  0.06368954     0.38300
C12         C  0.99602394  0.31104210  0.02902925     0.38300
C13         C  0.51673500  0.17755995  0.05329316    -0.19200
C14         C  0.01356136  0.19722773  0.07556243    -0.19200
C15         C  0.51519325  0.30344142  0.42494984    -0.19200
C16         C  0.01364495  0.32485746  0.44616430    -0.19200
C17         C  0.48865520  0.17474751  0.44490481    -0.20300
C18         C  0.48814341  0.19597545  0.42296738    -0.20300
C19         C  0.99123023  0.30400039  0.07797811    -0.20300
C20         C  0.99088545  0.32524362  0.05612962    -0.20300
C21         C  0.50232599  0.17504640  0.49877613    -0.15600
C22         C  0.00007403  0.25002524  0.07839253    -0.15600
C23         C  0.99825649  0.32551881  0.00092751    -0.15600
C24         C  0.50009117  0.25009528  0.42165452    -0.15600
H25         H  0.52400511  0.15515380  0.05613498     0.17300
H26         H  0.01927385  0.19383905  0.09872899     0.17300
H27         H  0.52172523  0.30713038  0.40190915     0.17300
H28         H  0.01928732  0.34809635  0.44301761     0.17300
H29         H  0.48388162  0.15131236  0.44174695     0.15600
H30         H  0.48285079  0.19214776  0.39966164     0.15600
H31         H  0.98793346  0.30774559  0.10166486     0.15600
H32         H  0.98728273  0.34855676  0.05983871     0.15600
H33         H  0.98886983  0.23225393  0.01840610     0.28800
H34         H  0.98907201  0.26728638  0.48189001     0.28800
N35         N  0.49512889  0.21845236  0.28314429    -0.33900
N36         N  0.49869789  0.28211681  0.28374064    -0.54500
N37         N  0.49781539  0.28212669  0.21698962    -0.33900
N38         N  0.49743166  0.21861807  0.21633111    -0.54500
C39         C  0.50069684  0.22332663  0.31267378     0.29600
C40         C  0.50057862  0.18971132  0.27710964     0.29600
C41         C  0.50384232  0.31108807  0.22278141     0.29600
C42         C  0.50250526  0.27750396  0.18727461     0.29600
C43         C  0.49470681  0.27789344  0.31354131     0.38300
C44         C  0.49601723  0.31140723  0.27872942     0.38300
C45         C  0.49307969  0.18930652  0.22128859     0.38300
C46         C  0.49410128  0.22281006  0.18652194     0.38300
C47         C  0.50919823  0.19715300  0.32561344    -0.19200
C48         C  0.50916211  0.17602140  0.30326453    -0.19200
C49         C  0.51206546  0.32516618  0.19630609    -0.19200
C50         C  0.51118830  0.30403572  0.17399232    -0.19200
C51         C  0.48967979  0.30470380  0.32758220    -0.20300
C52         C  0.49050296  0.32589207  0.30559876    -0.20300
C53         C  0.48722460  0.17479208  0.19439822    -0.20300
C54         C  0.48790423  0.19596591  0.17244728    -0.20300
C55         C  0.49761173  0.25051332  0.32842265    -0.15600
C56         C  0.49669308  0.17500239  0.24913383    -0.15600
C57         C  0.49814546  0.25026697  0.17163844    -0.15600
C58         C  0.50040884  0.32567356  0.25075213    -0.15600
H59         H  0.51499212  0.19363834  0.34874025     0.17300
H60         H  0.51482864  0.15310059  0.30602352     0.17300
H61         H  0.51787309  0.34838269  0.19325690     0.17300
H62         H  0.51630233  0.30783946  0.15062730     0.17300
H63         H  0.48618163  0.30865265  0.35122653     0.15600
H64         H  0.48775301  0.34937977  0.30909194     0.15600
H65         H  0.48329271  0.15128043  0.19085967     0.15600
H66         H  0.48452904  0.19198979  0.14880081     0.15600
H67         H  0.48538113  0.23291171  0.26848733     0.28800
H68         H  0.48812263  0.26732476  0.23201925     0.28800
O69         O  0.48557286  0.01801490  0.43379705    -0.75800
C70         C  0.41694574  0.99975282  0.49872014     0.85200
O71         O  0.02143543  0.07207979  0.01843053    -0.76900
O72         O  0.48234456  0.48552267  0.06857846    -0.78400
O73         O  0.01957399  0.43011770  0.48401153    -0.78200
O74         O  0.01971665  0.48205834  0.43258197    -0.76900
Zn75       Zn  0.47588451  0.02600986  0.47610491     1.55700
O76         O  0.48014569  0.43069806  0.01856735    -0.78300
Cd77       Cd  0.02803862  0.47452316  0.47629112     1.59700
Cd78       Cd  0.02880788  0.02773640  0.02556395     1.59600
O79         O  0.07262018  0.48266148  0.48363037    -0.78200
O80         O  0.50338200  0.00086460  0.00045169    -1.88700
Cd81       Cd  0.47333510  0.47558512  0.02520718     1.59900
O82         O  0.07366151  0.02136131  0.01925374    -0.78200
O83         O  0.42887761  0.48301626  0.01804953    -0.76900
C84         C  0.00203234  0.08536499  0.50156532     0.85700
C85         C  0.50326568  0.00129865  0.42004593     0.85300
O86         O  0.43187594  0.01804302  0.48266645    -0.75800
C87         C  0.99811543  0.41634132  0.00072883     0.86200
O88         O  0.48440528  0.06973915  0.48349124    -0.75900
C89         C  0.08769612  0.00343981  0.00278421     0.86300
C90         C  0.00069106  0.99982161  0.08118235     0.86600
O91         O  0.01853231  0.01831712  0.06879183    -0.78300
O92         O  0.48244906  0.01622095  0.18468690    -0.75800
C93         C  0.41767212  0.99833300  0.25348178     0.85200
O94         O  0.02101241  0.07151395  0.26429814    -0.76900
O95         O  0.48282609  0.48062562  0.31690634    -0.78400
O96         O  0.01955843  0.42968830  0.23358885    -0.78200
O97         O  0.02005279  0.48286507  0.18240790    -0.76900
Zn98       Zn  0.47489356  0.02493911  0.22719092     1.55700
O99         O  0.48318693  0.42899395  0.26488668    -0.78300
Cd100      Cd  0.02763026  0.47453307  0.22622152     1.59700
Cd101      Cd  0.02901904  0.02748080  0.27228432     1.59600
O102        O  0.07215534  0.48369952  0.23455038    -0.78200
O103        O  0.50134098  0.00084363  0.25001476    -1.88700
Cd104      Cd  0.47481601  0.47282688  0.27304089     1.59900
O105        O  0.07334724  0.02000250  0.26413038    -0.78200
O106        O  0.43021764  0.47878276  0.26598982    -0.76900
C107        C  0.00106152  0.08321028  0.24877827     0.85700
C108        C  0.50000428  0.99982400  0.17037878     0.85300
O109        O  0.43158570  0.01590606  0.23587024    -0.75800
C110        C  0.00113575  0.41562783  0.25029480     0.86200
O111        O  0.48191441  0.06897884  0.23382713    -0.75900
C112        C  0.08615514  0.00040653  0.24864014     0.86300
C113        C  0.00005834  0.50018885  0.33084536     0.86600
O114        O  0.02179281  0.02057427  0.31639972    -0.78300
N115        N  0.28583606  0.99737496  0.03287116    -0.33900
N116        N  0.22234305  0.00080528  0.03494862    -0.54500
N117        N  0.21896041  0.00063771  0.46823905    -0.33900
N118        N  0.28241661  0.00011663  0.46663775    -0.54500
C119        C  0.28197343  0.00128681  0.06284875     0.29600
C120        C  0.31498206  0.00197742  0.02660323     0.29600
C121        C  0.19053666  0.00691436  0.47459301     0.29600
C122        C  0.22349334  0.00529849  0.43855188     0.29600
C123        C  0.22686028  0.99655511  0.06458426     0.38300
C124        C  0.19276724  0.99847139  0.03052810     0.38300
C125        C  0.31144274  0.99537615  0.47121241     0.38300
C126        C  0.27749494  0.99618938  0.43692694     0.38300
C127        C  0.30916928  0.00792561  0.07580275    -0.19200
C128        C  0.32990285  0.00841619  0.05305609    -0.19200
C129        C  0.17670985  0.01549991  0.44849207    -0.19200
C130        C  0.19743660  0.01437965  0.42581059    -0.19200
C131        C  0.19995504  0.99188464  0.07908362    -0.20300
C132        C  0.17841917  0.99314548  0.05761528    -0.20300
C133        C  0.32510609  0.98882113  0.44417144    -0.20300
C134        C  0.30363353  0.98925830  0.42253977    -0.20300
C135        C  0.25477860  0.99824445  0.07897643    -0.15600
C136        C  0.32890133  0.99911992  0.99809843    -0.15600
C137        C  0.25005436  0.00019463  0.42245160    -0.15600
C138        C  0.17818870  0.00249075  0.00287559    -0.15600
H139        H  0.31365752  0.01203263  0.09923355     0.17300
H140        H  0.35341033  0.01286454  0.05579130     0.17300
H141        H  0.15384235  0.02141392  0.44588518     0.17300
H142        H  0.19364328  0.01941493  0.40253993     0.17300
H143        H  0.19618614  0.98800741  0.10266643     0.15600
H144        H  0.15482551  0.99050791  0.06156613     0.15600
H145        H  0.34820475  0.98422940  0.44038531     0.15600
H146        H  0.30693957  0.98507605  0.39892002     0.15600
H147        H  0.27021028  0.98919050  0.01785998     0.28800
H148        H  0.23321124  0.99043263  0.48275608     0.28800
N149        N  0.28234609  0.99756056  0.28486301    -0.33900
N150        N  0.28450905  0.99872370  0.21811252    -0.54500
N151        N  0.22099823  0.99625566  0.21674691    -0.33900
N152        N  0.21901273  0.99809629  0.28362584    -0.54500
C153        C  0.31149535  0.00345323  0.27987257     0.29600
C154        C  0.27681097  0.00288743  0.31430918     0.29600
C155        C  0.22682072  0.00154951  0.18733280     0.29600
C156        C  0.19221381  0.00215134  0.22188325     0.29600
C157        C  0.31339049  0.99464799  0.22420507     0.38300
C158        C  0.28106404  0.99411519  0.18826883     0.38300
C159        C  0.22222224  0.99431009  0.31351126     0.35700
C160        C  0.18990524  0.99391231  0.27760479     0.38300
C161        C  0.32472049  0.01239950  0.30653937    -0.19200
C162        C  0.30289239  0.01203720  0.32819000    -0.19200
C163        C  0.20123688  0.01051374  0.17357686    -0.19200
C164        C  0.17946184  0.01090908  0.19528788    -0.19200
C165        C  0.32840130  0.98778396  0.19798463    -0.20300
C166        C  0.30797554  0.98747717  0.17529848    -0.20300
C167        C  0.19493512  0.98789260  0.32660346    -0.20300
C168        C  0.17449210  0.98761151  0.30391798    -0.20300
C169        C  0.32694974  0.99887536  0.25255389    -0.15600
C170        C  0.24920871  0.99844063  0.32924063    -0.15600
C171        C  0.17660695  0.99815329  0.24934387    -0.15600
C172        C  0.25428552  0.99745534  0.17241287    -0.15600
H173        H  0.34783422  0.01827344  0.31014751     0.17300
H174        H  0.30595915  0.01770669  0.35153876     0.17300
H175        H  0.19852007  0.01628275  0.15033536     0.17300
H176        H  0.15671888  0.01683645  0.19179366     0.17300
H177        H  0.35175282  0.98367628  0.19538509     0.15600
H178        H  0.31246890  0.98303748  0.15192217     0.15600
H179        H  0.19019225  0.98420387  0.35006819     0.15600
H180        H  0.15086763  0.98369990  0.30660128     0.15600
H181        H  0.26808096  0.98728822  0.26966158     0.28800
H182        H  0.23478133  0.98622509  0.23185998     0.28800
C183        C  0.24916031  0.99963666  0.38951021    -0.10600
C184        C  0.24868986  0.99904966  0.36220283    -0.12200
C185        C  0.25539041  0.99785183  0.11201222    -0.10600
C186        C  0.25510905  0.99760941  0.13937682    -0.12200
C187        C  0.11790173  0.99999838  0.24849450    -0.10600
C188        C  0.14456458  0.99923986  0.24862112    -0.12200
C189        C  0.38582605  0.99835590  0.25401771    -0.10600
C190        C  0.35909663  0.99868475  0.25366661    -0.12200
C191        C  0.11945295  0.00413345  0.00356170    -0.10600
C192        C  0.14613698  0.00377434  0.00357272    -0.12200
C193        C  0.38788511  0.99983005  0.99732807    -0.10600
C194        C  0.36112003  0.99955300  0.99733769    -0.12200
C195        C  0.00587724  0.00421785  0.36224023    -0.10600
C196        C  0.00553788  0.00474362  0.38875928    -0.12200
C197        C  0.99968619  0.99928102  0.11251839    -0.10600
C198        C  0.99954064  0.99884798  0.13904354    -0.12200
C199        C  0.00121680  0.35707176  0.25084348    -0.10600
C200        C  0.00135481  0.38381192  0.25060508    -0.12200
C201        C  0.99938590  0.11490007  0.24845843    -0.10600
C202        C  0.99797552  0.14153881  0.24871458    -0.12200
C203        C  0.49959385  0.25046834  0.38869851    -0.10600
C204        C  0.49875722  0.25047632  0.36138631    -0.12200
C205        C  0.49854833  0.25039340  0.13868201    -0.10600
C206        C  0.49869780  0.25032152  0.11137174    -0.12200
C207        C  0.99765572  0.38446554  0.00099368    -0.10600
C208        C  0.99777269  0.35771056  0.00105756    -0.12200
C209        C  0.00184102  0.14378367  0.50152303    -0.10600
C210        C  0.00188683  0.11710088  0.50159159    -0.12200
N211        N  0.99825150  0.21960183  0.53403331    -0.33900
N212        N  0.50205136  0.21903832  0.96636894    -0.54500
N213        N  0.49807373  0.28255877  0.96736374    -0.33900
N214        N  0.99932266  0.28292636  0.53380235    -0.54500
C215        C  0.50725784  0.19033440  0.52620974     0.29600
C216        C  0.00307666  0.22507303  0.56355164     0.29600
C217        C  0.50352483  0.27826773  0.93769863     0.29600
C218        C  0.00130435  0.31115704  0.97268671     0.29600
C219        C  0.50035933  0.18946993  0.97116988     0.38300
C220        C  0.49883978  0.22312119  0.93651068     0.38300
C221        C  0.99397247  0.27890164  0.56341469     0.38300
C222        C  0.99503742  0.31180847  0.52814389     0.38300
C223        C  0.51806946  0.17767512  0.55200473    -0.19200
C224        C  0.01277535  0.19963808  0.57703765    -0.19200
C225        C  0.51134197  0.30521519  0.92476431    -0.19200
C226        C  0.00681003  0.32573705  0.94585767    -0.19200
C227        C  0.49643091  0.17467436  0.94410110    -0.20300
C228        C  0.49545710  0.19592516  0.92224187    -0.20300
C229        C  0.98651144  0.30542520  0.57670557    -0.20300
C230        C  0.98720794  0.32626530  0.55441954    -0.20300
C231        C  0.50434097  0.17543982  0.99917041    -0.15600
C232        C  0.99769559  0.25199692  0.57880048    -0.15600
C233        C  0.00008255  0.32586359  0.50023245    -0.15600
C234        C  0.50075692  0.25091753  0.92179001    -0.15600
H235        H  0.52584648  0.15541167  0.55452374     0.17300
H236        H  0.01836003  0.19675501  0.60031099     0.17300
H237        H  0.51689331  0.30932388  0.90155322     0.17300
H238        H  0.01022148  0.34931309  0.94256108     0.17300
H239        H  0.49490076  0.15097903  0.94038261     0.15600
H240        H  0.49295356  0.19177129  0.89852599     0.15600
H241        H  0.98139488  0.30940974  0.60003365     0.15600
H242        H  0.98272935  0.34950996  0.55732073     0.15600
H243        H  0.98773053  0.23321472  0.51910953     0.28800
H244        H  0.99061959  0.26621029  0.98260638     0.28800
N245        N  0.49644748  0.21891424  0.78326259    -0.33900
N246        N  0.49804749  0.28271894  0.78327665    -0.54500
N247        N  0.49504976  0.28185378  0.71645283    -0.33900
N248        N  0.49647747  0.21816894  0.71629320    -0.54500
C249        C  0.50257461  0.22425707  0.81262545     0.29600
C250        C  0.50250564  0.19025733  0.77738026     0.29600
C251        C  0.49875809  0.31129052  0.72164055     0.29600
C252        C  0.49810376  0.27712771  0.68649827     0.29600
C253        C  0.49573817  0.27875920  0.81330310     0.38300
C254        C  0.49478157  0.31193525  0.77816349     0.38300
C255        C  0.49403405  0.18875748  0.72159313     0.38300
C256        C  0.49320197  0.22187086  0.68640111     0.38300
C257        C  0.51214991  0.19850480  0.82556832    -0.19200
C258        C  0.51212242  0.17714801  0.80345731    -0.19200
C259        C  0.50373958  0.32554084  0.69453733    -0.19200
C260        C  0.50336109  0.30409182  0.67251428    -0.19200
C261        C  0.49138915  0.30568578  0.82736600    -0.20300
C262        C  0.49082584  0.32663871  0.80521800    -0.20300
C263        C  0.48928835  0.17364578  0.69480384    -0.20300
C264        C  0.48883834  0.19455933  0.67259269    -0.20300
C265        C  0.49916971  0.25147303  0.82829355    -0.15600
C266        C  0.49849120  0.17504216  0.74964943    -0.15600
C267        C  0.49554148  0.24938999  0.67122766    -0.15600
C268        C  0.49656234  0.32600678  0.74979503    -0.15600
H269        H  0.51877765  0.19544676  0.84851904     0.17300
H270        H  0.51856702  0.15446943  0.80630974     0.17300
H271        H  0.50719948  0.34905983  0.69089370     0.17300
H272        H  0.50657799  0.30800115  0.64885904     0.17300
H273        H  0.48909724  0.30986785  0.85110975     0.15600
H274        H  0.48796876  0.35011057  0.80871010     0.15600
H275        H  0.48699225  0.14993401  0.69147566     0.15600
H276        H  0.48597982  0.19011375  0.64895362     0.15600
H277        H  0.48591838  0.23291764  0.76874004     0.28800
H278        H  0.48840889  0.26649053  0.73236755     0.28800
O279        O  0.48781388  0.01762293  0.93443494    -0.75800
C280        C  0.41971546  0.99969031  0.99840694     0.85200
O281        O  0.01996807  0.07259079  0.51860116    -0.76900
O282        O  0.48205879  0.48470410  0.56718738    -0.78400
O283        O  0.01727018  0.42999129  0.98452582    -0.78200
O284        O  0.01933586  0.48284475  0.93341014    -0.76900
Zn285      Zn  0.47896643  0.02636904  0.97684047     1.55700
O286        O  0.48198571  0.42988879  0.51698475    -0.78300
Cd287      Cd  0.02627312  0.47469445  0.97720105     1.59700
Cd288      Cd  0.02698754  0.02825584  0.52519575     1.59600
O289        O  0.07083190  0.48321082  0.98577676    -0.78200
O290        O  0.50038030  0.00062967  0.49980245    -1.88700
Cd291      Cd  0.47469452  0.47466242  0.52357019     1.59900
O292        O  0.07168240  0.02180542  0.51847499    -0.78200
O293        O  0.43040585  0.48187143  0.51562611    -0.76900
C294        C  0.00383113  0.08443845  0.00067913     0.85700
C295        C  0.50448001  0.99992965  0.92060849     0.85300
O296        O  0.43482935  0.01853256  0.98317310    -0.75800
C297        C  0.00081488  0.41629956  0.50045887     0.86200
O298        O  0.48791690  0.07005577  0.98441826    -0.75900
C299        C  0.08553161  0.00366959  0.50211635     0.86300
C300        C  0.99934351  0.00081944  0.58119136     0.86600
O301        O  0.01728965  0.01905642  0.56858880    -0.78300
O302        O  0.48248907  0.01689405  0.68452736    -0.75800
C303        C  0.41751146  0.99940638  0.75209074     0.85200
O304        O  0.02159190  0.07228249  0.76631300    -0.76900
O305        O  0.48299815  0.48366262  0.81773239    -0.78400
O306        O  0.01464414  0.42970502  0.73445705    -0.78200
O307        O  0.01684080  0.48251586  0.68319718    -0.76900
Zn308      Zn  0.47549282  0.02579976  0.72722352     1.55700
O309        O  0.47993160  0.43034613  0.76645856    -0.78300
Cd310      Cd  0.02453739  0.47419336  0.72687130     1.59700
Cd311      Cd  0.02841045  0.02795387  0.77386858     1.59600
O312        O  0.06944499  0.48217681  0.73396147    -0.78200
O313        O  0.50092200  0.00091330  0.75020203    -1.88700
Cd314      Cd  0.47322326  0.47494148  0.77425830     1.59900
O315        O  0.07269965  0.02041487  0.76609323    -0.78200
O316        O  0.42870204  0.48213262  0.76818057    -0.76900
C317        C  0.00365568  0.08473961  0.74899673     0.85700
C318        C  0.49963060  0.00013904  0.67012343     0.85300
O319        O  0.43203384  0.01769266  0.73572465    -0.75800
C320        C  0.99552944  0.41651210  0.75109539     0.86200
O321        O  0.48409469  0.06956724  0.73405301    -0.75900
C322        C  0.08574727  0.00171597  0.74970590     0.86300
C323        C  0.00077086  0.50128849  0.83131714     0.86600
O324        O  0.02056321  0.01966556  0.81762401    -0.78300
N325        N  0.28322674  0.99596647  0.53336943    -0.33900
N326        N  0.21983258  0.99993678  0.53489561    -0.54500
N327        N  0.22090394  0.99972816  0.96806408    -0.33900
N328        N  0.28462367  0.99999088  0.96609160    -0.54500
C329        C  0.27908208  0.00000703  0.56323946     0.29600
C330        C  0.31227413  0.00129772  0.52732099     0.29600
C331        C  0.19232975  0.00543671  0.97450903     0.29600
C332        C  0.22517736  0.00430180  0.93828518     0.29600
C333        C  0.22414571  0.99426654  0.56429136     0.38300
C334        C  0.19035575  0.99716610  0.53005615     0.38300
C335        C  0.31392055  0.99642082  0.97031338     0.38300
C336        C  0.27968856  0.99722018  0.93626919     0.38300
C337        C  0.30604629  0.00724787  0.57641648    -0.19200
C338        C  0.32692750  0.00810657  0.55384004    -0.19200
C339        C  0.17809080  0.01313913  0.94835144    -0.19200
C340        C  0.19873682  0.01239426  0.92560303    -0.19200
C341        C  0.19723423  0.98804060  0.57823458    -0.20300
C342        C  0.17586551  0.98988628  0.55661880    -0.20300
C343        C  0.32769973  0.99166341  0.94291461    -0.20300
C344        C  0.30607677  0.99214844  0.92144784    -0.20300
C345        C  0.25182103  0.99660166  0.57902925    -0.15600
C346        C  0.32632320  0.99858353  0.49895222    -0.15600
C347        C  0.25202381  0.00076415  0.92206684    -0.15600
C348        C  0.17602360  0.00279991  0.50260110    -0.15600
H349        H  0.31027159  0.01159734  0.59984908     0.17300
H350        H  0.35032899  0.01307541  0.55671451     0.17300
H351        H  0.15510690  0.01867385  0.94582633     0.17300
H352        H  0.19470545  0.01738192  0.90237324     0.17300
H353        H  0.19337157  0.98291359  0.60156938     0.15600
H354        H  0.15228448  0.98647909  0.56014293     0.15600
H355        H  0.35100475  0.98842907  0.93874150     0.15600
H356        H  0.30946500  0.98928745  0.89764333     0.15600
H357        H  0.26786252  0.98726275  0.51828325     0.28800
H358        H  0.23561603  0.99053909  0.98275858     0.28800
N359        N  0.28299328  0.00105734  0.78388566    -0.33900
N360        N  0.28392500  0.00070658  0.71713484    -0.54500
N361        N  0.22027365  0.99981387  0.71719975    -0.33900
N362        N  0.21950418  0.00382460  0.78393118    -0.54500
C363        C  0.31226638  0.00547350  0.77838463     0.29600
C364        C  0.27824946  0.00643519  0.81345485     0.29600
C365        C  0.22541434  0.00346282  0.68743365     0.29600
C366        C  0.19141256  0.00518429  0.72248476     0.29600
C367        C  0.31293478  0.99673010  0.72258182     0.38300
C368        C  0.27985341  0.99621810  0.68738080     0.38300
C369        C  0.22332051  0.00023855  0.81377340     0.35700
C370        C  0.19023056  0.99964284  0.77859187     0.38300
C371        C  0.32637026  0.01350350  0.80488618    -0.19200
C372        C  0.30496346  0.01410827  0.82692013    -0.19200
C373        C  0.19931272  0.01090005  0.67362977    -0.19200
C374        C  0.17792010  0.01197397  0.69565237    -0.19200
C375        C  0.32745205  0.99011357  0.69600177    -0.20300
C376        C  0.30654606  0.98982247  0.67377764    -0.20300
C377        C  0.19624865  0.99435056  0.82751765    -0.20300
C378        C  0.17533374  0.99397016  0.80531351    -0.20300
C379        C  0.32700615  0.00063217  0.75070156    -0.15600
C380        C  0.25078210  0.00310524  0.82888371    -0.15600
C381        C  0.17636896  0.00222081  0.75035480    -0.15600
C382        C  0.25262354  0.99902881  0.67218215    -0.15600
H383        H  0.34977874  0.01814918  0.80814396     0.17300
H384        H  0.30871543  0.01944002  0.85023888     0.17300
H385        H  0.19594189  0.01498818  0.65009498     0.17300
H386        H  0.15491139  0.01692133  0.69218997     0.17300
H387        H  0.35076607  0.98610192  0.69287040     0.15600
H388        H  0.31057276  0.98544602  0.65030832     0.15600
H389        H  0.19200233  0.99058335  0.85105131     0.15600
H390        H  0.15179239  0.98992438  0.80851741     0.15600
H391        H  0.26795925  0.99166550  0.76892719     0.28800
H392        H  0.23453247  0.99101625  0.73261141     0.28800
C393        C  0.25128584  0.00186582  0.88913288    -0.10600
C394        C  0.25088875  0.00265789  0.86184004    -0.12200
C395        C  0.25221399  0.99702837  0.61196229    -0.10600
C396        C  0.25256367  0.99788101  0.63925116    -0.12200
C397        C  0.11752837  0.00180078  0.74964012    -0.10600
C398        C  0.14423980  0.00200706  0.74991521    -0.12200
C399        C  0.38576015  0.99967203  0.75180376    -0.10600
C400        C  0.35908704  0.00007215  0.75122516    -0.12200
C401        C  0.11729369  0.00428731  0.50279715    -0.10600
C402        C  0.14397993  0.00403419  0.50301307    -0.12200
C403        C  0.38518282  0.99995261  0.49806537    -0.10600
C404        C  0.35846188  0.99945689  0.49826395    -0.12200
C405        C  0.00420323  0.00189297  0.86269736    -0.10600
C406        C  0.00525799  0.00166854  0.88917781    -0.12200
C407        C  0.99885723  0.00008769  0.61256992    -0.10600
C408        C  0.99910273  0.99938314  0.63910567    -0.12200
C409        C  0.99393441  0.35799598  0.75180234    -0.10600
C410        C  0.99429242  0.38471491  0.75145646    -0.12200
C411        C  0.00362730  0.11649393  0.74817032    -0.10600
C412        C  0.00307957  0.14317769  0.74815038    -0.12200
C413        C  0.50076600  0.25136753  0.88872306    -0.10600
C414        C  0.50028114  0.25149258  0.86134723    -0.12200
C415        C  0.49620761  0.24919484  0.63818394    -0.10600
C416        C  0.49702799  0.24932640  0.61083474    -0.12200
C417        C  0.00058573  0.38459234  0.50034035    -0.10600
C418        C  0.00049603  0.35792476  0.50003897    -0.12200
C419        C  0.00279794  0.14277371  0.99927594    -0.10600
C420        C  0.00342502  0.11613406  0.99988676    -0.12200
N421        N  0.99688536  0.71917355  0.03314917    -0.33900
N422        N  0.50008723  0.71802324  0.46661796    -0.54500
N423        N  0.49711276  0.78145115  0.46692494    -0.33900
N424        N  0.99984410  0.78261506  0.03350599    -0.54500
C425        C  0.50537569  0.68986667  0.02711853     0.29600
C426        C  0.00172516  0.72419315  0.06277351     0.29600
C427        C  0.50259225  0.77678848  0.43738419     0.29600
C428        C  0.00149637  0.81113311  0.47153774     0.29600
C429        C  0.49636592  0.68869767  0.47182855     0.38300
C430        C  0.49582989  0.72195663  0.43691275     0.38300
C431        C  0.99526572  0.77861905  0.06326640     0.38300
C432        C  0.99738478  0.81186692  0.02819550     0.38300
C433        C  0.51346335  0.67599480  0.05336329    -0.19200
C434        C  0.01050988  0.69826123  0.07598772    -0.19200
C435        C  0.51065933  0.80348609  0.42407667    -0.19200
C436        C  0.00896558  0.82501699  0.44477191    -0.19200
C437        C  0.49006015  0.67389426  0.44519996    -0.20300
C438        C  0.48969228  0.69493608  0.42314785    -0.20300
C439        C  0.99021260  0.80556684  0.07700934    -0.20300
C440        C  0.99155121  0.82659397  0.05486498    -0.20300
C441        C  0.50043243  0.67472469  0.49974076    -0.15600
C442        C  0.99765737  0.75127376  0.07835226    -0.15600
C443        C  0.00243108  0.82586830  0.00018699    -0.15600
C444        C  0.49890553  0.74941810  0.42188129    -0.15600
H445        H  0.51870031  0.65296195  0.05615532     0.17300
H446        H  0.01593748  0.69493726  0.09923495     0.17300
H447        H  0.51607760  0.80728671  0.40078354     0.17300
H448        H  0.01399428  0.84832978  0.44131212     0.17300
H449        H  0.48622641  0.65032587  0.44195231     0.15600
H450        H  0.48551503  0.69078436  0.39966859     0.15600
H451        H  0.98637591  0.80971864  0.10055377     0.15600
H452        H  0.98902022  0.85014156  0.05814985     0.15600
H453        H  0.98705413  0.73335020  0.01826776     0.28800
H454        H  0.98767914  0.76680492  0.48152165     0.28800
N455        N  0.49627675  0.71778700  0.28360853    -0.33900
N456        N  0.49844473  0.78154683  0.28407649    -0.54500
N457        N  0.49661109  0.78136254  0.21739570    -0.33900
N458        N  0.49807110  0.71772012  0.21686420    -0.54500
C459        C  0.50137057  0.72277281  0.31318343     0.29600
C460        C  0.50218059  0.68912364  0.27778750     0.29600
C461        C  0.50210334  0.81050107  0.22306185     0.29600
C462        C  0.50129263  0.77670444  0.18765578     0.29600
C463        C  0.49518000  0.77734899  0.31396628     0.38300
C464        C  0.49586242  0.81088029  0.27920233     0.38300
C465        C  0.49528550  0.68826293  0.22184784     0.38300
C466        C  0.49505790  0.72167542  0.18698124     0.38300
C467        C  0.51007830  0.69678538  0.32634731    -0.19200
C468        C  0.51064643  0.67562988  0.30409760    -0.19200
C469        C  0.50983865  0.82460416  0.19649522    -0.19200
C470        C  0.50929880  0.80337300  0.17427022    -0.19200
C471        C  0.49089541  0.80421570  0.32817509    -0.20300
C472        C  0.49138113  0.82540841  0.30624768    -0.20300
C473        C  0.49077130  0.67340653  0.19489275    -0.20300
C474        C  0.49063850  0.69452070  0.17288639    -0.20300
C475        C  0.49783736  0.74991213  0.32879040    -0.15600
C476        C  0.49884245  0.67425863  0.24987280    -0.15600
C477        C  0.49800300  0.74925933  0.17207182    -0.15600
C478        C  0.49907660  0.82516462  0.25110565    -0.15600
H479        H  0.51569915  0.69342967  0.34954406     0.17300
H480        H  0.51665238  0.65282636  0.30702696     0.17300
H481        H  0.51534255  0.84787207  0.19337375     0.17300
H482        H  0.51442269  0.80717280  0.15091105     0.17300
H483        H  0.48801142  0.80820306  0.35188364     0.15600
H484        H  0.48895868  0.84891978  0.30988582     0.15600
H485        H  0.48827847  0.64973805  0.19135097     0.15600
H486        H  0.48795497  0.69030567  0.14919334     0.15600
H487        H  0.48653417  0.73206747  0.26880842     0.28800
H488        H  0.48748944  0.76635194  0.23253770     0.28800
O489        O  0.48464856  0.51675776  0.43376858    -0.75800
C490        C  0.41825709  0.50108676  0.49952538     0.85200
O491        O  0.01770921  0.57255931  0.01739095    -0.76900
O492        O  0.48299799  0.98250740  0.06732518    -0.78400
O493        O  0.01904128  0.93111660  0.48247820    -0.78200
O494        O  0.02154294  0.98593653  0.43291598    -0.76900
Zn495      Zn  0.47715827  0.52630559  0.47613273     1.55700
O496        O  0.48344287  0.92939714  0.01645669    -0.78300
Cd497      Cd  0.02787740  0.97620637  0.47644815     1.59700
Cd498      Cd  0.02577838  0.52834535  0.02361033     1.59600
O499        O  0.07224321  0.98487107  0.48523794    -0.78200
O500        O  0.50004894  0.50140399  0.00017304    -1.88700
Cd501      Cd  0.47602226  0.97386784  0.02343881     1.59900
O502        O  0.07038436  0.52262611  0.01590855    -0.78200
O503        O  0.43189316  0.98071256  0.01476130    -0.76900
C504        C  0.00480495  0.58407125  0.50045571     0.85700
C505        C  0.50127460  0.49906209  0.41992949     0.85300
O506        O  0.43335195  0.51943694  0.48376004    -0.75800
C507        C  0.00309848  0.91651050  0.99902543     0.86200
O508        O  0.48622565  0.56984781  0.48296250    -0.75900
C509        C  0.08420322  0.50326047  0.00110829     0.86300
C510        C  0.00017728  0.50104556  0.08046941     0.86600
O511        O  0.01800280  0.51877441  0.06705696    -0.78300
O512        O  0.48422205  0.51810421  0.18485190    -0.75800
C513        C  0.41736637  0.49755147  0.24995443     0.85200
O514        O  0.01870263  0.57135444  0.26683610    -0.76900
O515        O  0.48661055  0.98406646  0.31848665    -0.78400
O516        O  0.01804023  0.92898278  0.23388060    -0.78200
O517        O  0.01853560  0.98161140  0.18273569    -0.76900
Zn518      Zn  0.47551789  0.52537747  0.22724992     1.55700
O519        O  0.48333771  0.92953227  0.26821872    -0.78300
Cd520      Cd  0.02703418  0.97340615  0.22626079     1.59700
Cd521      Cd  0.02650681  0.52721159  0.27407688     1.59600
O522        O  0.07182173  0.98101974  0.23336597    -0.78200
O523        O  0.50120838  0.50044159  0.24981732    -1.88700
Cd524      Cd  0.47604500  0.97418019  0.27554882     1.59900
O525        O  0.07128175  0.52118273  0.26710955    -0.78200
O526        O  0.43108591  0.98079656  0.27050708    -0.76900
C527        C  0.00061265  0.58365449  0.24958032     0.85700
C528        C  0.50204323  0.50220177  0.17033488     0.85300
O529        O  0.43182964  0.51649410  0.23428962    -0.75800
C530        C  0.00013078  0.91552797  0.25155018     0.86200
O531        O  0.48315054  0.56894394  0.23500995    -0.75900
C532        C  0.08533268  0.50292909  0.25106373     0.86300
C533        C  0.00504053  0.00272118  0.33095305     0.86600
O534        O  0.01760136  0.51838024  0.31765518    -0.78300
N535        N  0.28262199  0.50520930  0.03331645    -0.33900
N536        N  0.21886053  0.50460477  0.03493266    -0.54500
N537        N  0.22071417  0.50302582  0.46781903    -0.33900
N538        N  0.28419128  0.50471823  0.46718729    -0.54500
C539        C  0.27807725  0.50105593  0.06314062     0.29600
C540        C  0.31124562  0.49931648  0.02717883     0.29600
C541        C  0.19195317  0.49603148  0.47377157     0.29600
C542        C  0.22556334  0.49765633  0.43826084     0.29600
C543        C  0.22363213  0.50851006  0.06464883     0.38300
C544        C  0.18961863  0.50816030  0.03037131     0.38300
C545        C  0.31354224  0.50879833  0.47207581     0.38300
C546        C  0.28000448  0.50763588  0.43732279     0.38300
C547        C  0.30434147  0.49288264  0.07612250    -0.19200
C548        C  0.32518649  0.49178650  0.05355636    -0.19200
C549        C  0.17828308  0.48621791  0.44762503    -0.19200
C550        C  0.19944187  0.48726280  0.42528729    -0.19200
C551        C  0.19718315  0.51428038  0.07907586    -0.20300
C552        C  0.17568126  0.51402976  0.05744337    -0.20300
C553        C  0.32809827  0.51409142  0.44509380    -0.20300
C554        C  0.30689139  0.51344581  0.42316737    -0.20300
C555        C  0.25117715  0.50524659  0.07913837    -0.15600
C556        C  0.32568964  0.50191886  0.99888692    -0.15600
C557        C  0.25257473  0.50301679  0.42247865    -0.15600
C558        C  0.17487072  0.50434858  0.00260428    -0.15600
H559        H  0.30812895  0.48809513  0.09943737     0.17300
H560        H  0.34810373  0.48612359  0.05634240     0.17300
H561        H  0.15530909  0.47930039  0.44482667     0.17300
H562        H  0.19592891  0.48118714  0.40209859     0.17300
H563        H  0.19367243  0.51806186  0.10272886     0.15600
H564        H  0.15235948  0.51747557  0.06129345     0.15600
H565        H  0.35165098  0.51764693  0.44149030     0.15600
H566        H  0.31090846  0.51632815  0.39946243     0.15600
H567        H  0.26806098  0.51434388  0.01840563     0.28800
H568        H  0.23503173  0.51408069  0.48242892     0.28800
N569        N  0.28351781  0.50362111  0.28377704    -0.33900
N570        N  0.28332418  0.50264837  0.21704570    -0.54500
N571        N  0.21988896  0.50733698  0.21783990    -0.33900
N572        N  0.21988977  0.50487779  0.28454742    -0.54500
C573        C  0.31181499  0.49642860  0.27772243     0.29600
C574        C  0.27839852  0.49850303  0.31333874     0.29600
C575        C  0.22429552  0.50282224  0.18803733     0.29600
C576        C  0.19061765  0.50286369  0.22356451     0.29600
C577        C  0.31283772  0.50437070  0.22196550     0.38300
C578        C  0.27943483  0.50674729  0.18730116     0.38300
C579        C  0.22431350  0.50764479  0.31446073     0.35700
C580        C  0.19070292  0.50866243  0.27978953     0.38300
C581        C  0.32494135  0.48695715  0.30384316    -0.19200
C582        C  0.30393944  0.48831893  0.32623506    -0.19200
C583        C  0.19734918  0.49600946  0.17464528    -0.19200
C584        C  0.17618442  0.49601771  0.19693672    -0.19200
C585        C  0.32776450  0.50921505  0.19510307    -0.20300
C586        C  0.30665421  0.51071818  0.17322908    -0.20300
C587        C  0.19771811  0.51295716  0.32879482    -0.20300
C588        C  0.17647927  0.51354043  0.30692850    -0.20300
C589        C  0.32677542  0.49977632  0.24983459    -0.15600
C590        C  0.25160176  0.50345120  0.32917736    -0.15600
C591        C  0.17619050  0.50587459  0.25175834    -0.15600
C592        C  0.25179122  0.50527951  0.17243381    -0.15600
H593        H  0.34743053  0.47988140  0.30656190     0.17300
H594        H  0.30711912  0.48236037  0.34937310     0.17300
H595        H  0.19332850  0.49123611  0.15126134     0.17300
H596        H  0.15274829  0.49143398  0.19381140     0.17300
H597        H  0.35146255  0.51113965  0.19153132     0.15600
H598        H  0.31090463  0.51411896  0.14964275     0.15600
H599        H  0.19390115  0.51563585  0.35256557     0.15600
H600        H  0.15311391  0.51682426  0.31067105     0.15600
H601        H  0.26974288  0.51433400  0.26918060     0.28800
H602        H  0.23530641  0.51563023  0.23303800     0.28800
C603        C  0.25222316  0.50281149  0.38949316    -0.10600
C604        C  0.25193721  0.50297158  0.36216490    -0.12200
C605        C  0.25165285  0.50518963  0.11211919    -0.10600
C606        C  0.25167761  0.50520396  0.13944634    -0.12200
C607        C  0.11719479  0.50412382  0.25161177    -0.10600
C608        C  0.14396096  0.50509658  0.25191615    -0.12200
C609        C  0.38555321  0.49755421  0.24975024    -0.10600
C610        C  0.35884853  0.49815586  0.24980848    -0.12200
C611        C  0.11599708  0.50390322  0.00203441    -0.10600
C612        C  0.14271206  0.50420975  0.00279846    -0.12200
C613        C  0.38461754  0.50031439  0.99886429    -0.10600
C614        C  0.35787282  0.50086170  0.99853919    -0.12200
C615        C  0.00032054  0.49986947  0.36221720    -0.10600
C616        C  0.00110046  0.49956948  0.38874377    -0.12200
C617        C  0.00111763  0.50059344  0.11178323    -0.10600
C618        C  0.00196567  0.50026949  0.13828910    -0.12200
C619        C  0.99883671  0.85706536  0.25157745    -0.10600
C620        C  0.99939328  0.88376846  0.25169721    -0.12200
C621        C  0.00024966  0.61541929  0.24896579    -0.10600
C622        C  0.00029469  0.64213537  0.24879418    -0.12200
C623        C  0.49867474  0.74954559  0.38898041    -0.10600
C624        C  0.49831227  0.74972039  0.36170435    -0.12200
C625        C  0.49893163  0.74939039  0.13907274    -0.10600
C626        C  0.49973831  0.74965813  0.11174416    -0.12200
C627        C  0.00308876  0.88471844  0.99901899    -0.10600
C628        C  0.00297735  0.85800728  0.99959048    -0.12200
C629        C  0.00305284  0.64256590  0.49992144    -0.10600
C630        C  0.00441338  0.61589428  0.50013680    -0.12200
N631        N  0.99699178  0.71852394  0.53302807    -0.33900
N632        N  0.50209521  0.71887173  0.96625770    -0.54500
N633        N  0.50126670  0.78212099  0.96737054    -0.33900
N634        N  0.99778553  0.78263913  0.53282575    -0.54500
C635        C  0.50291745  0.68958243  0.52773652     0.29600
C636        C  0.00041978  0.72373363  0.56280779     0.29600
C637        C  0.50673454  0.77768440  0.93773325     0.29600
C638        C  0.00737424  0.81088943  0.97265508     0.29600
C639        C  0.49752305  0.68959988  0.97128687     0.38300
C640        C  0.49808515  0.72316042  0.93653519     0.38300
C641        C  0.99467366  0.77864095  0.56278153     0.38300
C642        C  0.99511293  0.81194794  0.52765862     0.38300
C643        C  0.51036129  0.67616988  0.55442083    -0.19200
C644        C  0.00739551  0.69753414  0.57671672    -0.19200
C645        C  0.51626005  0.80419047  0.92496161    -0.19200
C646        C  0.01782929  0.82443695  0.94667157    -0.19200
C647        C  0.49098322  0.67517320  0.94449044    -0.20300
C648        C  0.49132983  0.69639339  0.92256053    -0.20300
C649        C  0.99035430  0.80565448  0.57670868    -0.20300
C650        C  0.99064507  0.82666784  0.55458153    -0.20300
C651        C  0.50103903  0.67526878  0.99915388    -0.15600
C652        C  0.99706926  0.75125074  0.57796098    -0.15600
C653        C  0.99828298  0.82606600  0.49941734    -0.15600
C654        C  0.50204227  0.75069051  0.92171661    -0.15600
H655        H  0.51603687  0.65332240  0.55770829     0.17300
H656        H  0.01154766  0.69419586  0.60021953     0.17300
H657        H  0.52206805  0.80809679  0.90177003     0.17300
H658        H  0.02477996  0.84740713  0.94390818     0.17300
H659        H  0.48665164  0.65170856  0.94101454     0.15600
H660        H  0.48724516  0.69251387  0.89902384     0.15600
H661        H  0.98747057  0.80985837  0.60037304     0.15600
H662        H  0.98811179  0.85019393  0.55801160     0.15600
H663        H  0.98901127  0.73307233  0.51743356     0.28800
H664        H  0.98925185  0.76779474  0.98113319     0.28800
N665        N  0.50101404  0.71963195  0.78276276    -0.33900
N666        N  0.50203502  0.78309050  0.78326861    -0.54500
N667        N  0.49942222  0.78252515  0.71635152    -0.33900
N668        N  0.50188583  0.71921898  0.71579974    -0.54500
C669        C  0.50512756  0.72441332  0.81256481     0.29600
C670        C  0.50554716  0.69066210  0.77707289     0.29600
C671        C  0.50537096  0.81151740  0.72203428     0.29600
C672        C  0.50422943  0.77782235  0.68668456     0.29600
C673        C  0.49862595  0.77899257  0.81317156     0.38300
C674        C  0.49802587  0.81212148  0.77800990     0.38300
C675        C  0.49776723  0.68995770  0.72115260     0.38300
C676        C  0.49661128  0.72320625  0.68626836     0.38300
C677        C  0.51199635  0.69794127  0.82596557    -0.19200
C678        C  0.51229282  0.67673566  0.80368683    -0.19200
C679        C  0.51386935  0.82547733  0.69557606    -0.19200
C680        C  0.51309985  0.80424993  0.67332058    -0.19200
C681        C  0.49290477  0.80572455  0.82704023    -0.20300
C682        C  0.49247092  0.82665286  0.80484376    -0.20300
C683        C  0.49037430  0.67526088  0.69471853    -0.20300
C684        C  0.48959861  0.69629637  0.67270153    -0.20300
C685        C  0.50171146  0.75166373  0.82820018    -0.15600
C686        C  0.50171446  0.67590772  0.74909104    -0.15600
C687        C  0.49942162  0.75063284  0.67120181    -0.15600
C688        C  0.50122857  0.82621494  0.74982993    -0.15600
H689        H  0.51617386  0.69418596  0.84941458     0.17300
H690        H  0.51657402  0.65353167  0.80687311     0.17300
H691        H  0.51971160  0.84868431  0.69251770     0.17300
H692        H  0.51831565  0.80790816  0.64994496     0.17300
H693        H  0.48948083  0.80976534  0.85067395     0.15600
H694        H  0.48879130  0.85000860  0.80816904     0.15600
H695        H  0.48587832  0.65177640  0.69159810     0.15600
H696        H  0.48442335  0.69223205  0.64941284     0.15600
H697        H  0.49263499  0.73427248  0.76751860     0.28800
H698        H  0.48926247  0.76785125  0.73123973     0.28800
O699        O  0.48495641  0.51694354  0.93359311    -0.75800
C700        C  0.41647362  0.50003355  0.99970941     0.85200
O701        O  0.02269606  0.57134334  0.51766129    -0.76900
O702        O  0.48085630  0.98301663  0.56729978    -0.78400
O703        O  0.02237645  0.93067954  0.98342995    -0.78200
O704        O  0.02333617  0.98417489  0.93319236    -0.76900
Zn705      Zn  0.47526423  0.52570215  0.97577509     1.55700
O706        O  0.48035507  0.92948548  0.51673896    -0.78300
Cd707      Cd  0.03041077  0.97561196  0.97688772     1.59700
Cd708      Cd  0.02884631  0.52666173  0.52497881     1.59600
O709        O  0.07460652  0.98476366  0.98563614    -0.78200
O710        O  0.50184897  0.50112748  0.49977046    -1.88700
Cd711      Cd  0.47332184  0.97406647  0.52356743     1.59900
O712        O  0.07334130  0.51829179  0.51834395    -0.78200
O713        O  0.42923529  0.98121509  0.51548615    -0.76900
C714        C  0.00015151  0.58499714  0.99970048     0.85700
C715        C  0.50242326  0.49985460  0.92003852     0.85300
O716        O  0.43138632  0.51693000  0.98218684    -0.75800
C717        C  0.00015832  0.91708655  0.49873320     0.86200
O718        O  0.48282594  0.56968102  0.98288016    -0.75900
C719        C  0.08654648  0.50038814  0.50110817     0.86300
C720        C  0.00017975  0.50076635  0.58132715     0.86600
O721        O  0.01862734  0.51828046  0.56842382    -0.78300
O722        O  0.48107212  0.51848463  0.68433692    -0.75800
C723        C  0.41582315  0.50086194  0.75209463     0.85200
O724        O  0.01875995  0.57196946  0.76645153    -0.76900
O725        O  0.48441789  0.98221185  0.81833302    -0.78400
O726        O  0.01810393  0.93020381  0.73489308    -0.78200
O727        O  0.01783616  0.98197452  0.68297234    -0.76900
Zn728      Zn  0.47376401  0.52698097  0.72691852     1.55700
O729        O  0.48184499  0.92961579  0.76655543    -0.78300
Cd730      Cd  0.02678987  0.97465155  0.72667212     1.59700
Cd731      Cd  0.02601487  0.52769575  0.77381985     1.59600
O732        O  0.07163753  0.98292288  0.73347885    -0.78200
O733        O  0.49923311  0.50165894  0.74953694    -1.88700
Cd734      Cd  0.47479872  0.97395187  0.77474845     1.59900
O735        O  0.07042955  0.52061261  0.76543477    -0.78200
O736        O  0.43021838  0.98085189  0.76852962    -0.76900
C737        C  0.00058080  0.58436286  0.74934736     0.85700
C738        C  0.49826642  0.50185235  0.66986283     0.85300
O739        O  0.43019351  0.51922114  0.73564583    -0.75800
C740        C  0.99938768  0.91663830  0.75163203     0.86200
O741        O  0.48268512  0.57073465  0.73342287    -0.75900
C742        C  0.08354995  0.50160776  0.74944253     0.86300
C743        C  0.00297364  0.00199200  0.83140645     0.86600
O744        O  0.01821256  0.51922474  0.81765652    -0.78300
N745        N  0.28436572  0.50803956  0.53392554    -0.33900
N746        N  0.22067085  0.50292017  0.53447081    -0.54500
N747        N  0.21808225  0.50539168  0.96822353    -0.33900
N748        N  0.28159871  0.50280579  0.96653913    -0.54500
C749        C  0.27959401  0.50342579  0.56362319     0.29600
C750        C  0.31323131  0.50295497  0.52815323     0.29600
C751        C  0.18904632  0.50016265  0.97450038     0.29600
C752        C  0.22212493  0.50035986  0.93846952     0.29600
C753        C  0.22477723  0.50754255  0.56419752     0.38300
C754        C  0.19132819  0.50504199  0.52942536     0.38300
C755        C  0.31118861  0.50513760  0.97100862     0.38300
C756        C  0.27712278  0.50606855  0.93673891     0.38300
C757        C  0.30597297  0.49617204  0.57695877    -0.19200
C758        C  0.32711642  0.49581677  0.55467616    -0.19200
C759        C  0.17442082  0.49197262  0.94833893    -0.19200
C760        C  0.19520784  0.49218569  0.92569746    -0.19200
C761        C  0.19784895  0.51218248  0.57814577    -0.20300
C762        C  0.17670535  0.51063186  0.55619390    -0.20300
C763        C  0.32558961  0.50943187  0.94377176    -0.20300
C764        C  0.30407543  0.51009944  0.92217957    -0.20300
C765        C  0.25224958  0.50593230  0.57914393    -0.15600
C766        C  0.32782580  0.50558121  0.49998835    -0.15600
C767        C  0.24920107  0.50379172  0.92232319    -0.15600
C768        C  0.17714566  0.50029895  0.50150483    -0.15600
H769        H  0.30957996  0.49121949  0.60026702     0.17300
H770        H  0.35014986  0.49072893  0.55771766     0.17300
H771        H  0.15105887  0.48662458  0.94571375     0.17300
H772        H  0.19094114  0.48688383  0.90245648     0.17300
H773        H  0.19381860  0.51616197  0.60168352     0.15600
H774        H  0.15316812  0.51305514  0.55964823     0.15600
H775        H  0.34920708  0.51166747  0.93979111     0.15600
H776        H  0.30789687  0.51300333  0.89846433     0.15600
H777        H  0.26959261  0.51662870  0.51884613     0.28800
H778        H  0.23336860  0.51492501  0.98286153     0.28800
N779        N  0.28091451  0.50461252  0.78431423    -0.33900
N780        N  0.28247762  0.50271770  0.71763599    -0.54500
N781        N  0.21886747  0.50490598  0.71679406    -0.33900
N782        N  0.21723716  0.50380087  0.78345443    -0.54500
C783        C  0.30968916  0.49863292  0.77916116     0.29600
C784        C  0.27526028  0.49984167  0.81383621     0.29600
C785        C  0.22416451  0.50018124  0.68720546     0.29600
C786        C  0.18957773  0.49976756  0.72178938     0.29600
C787        C  0.31177060  0.50591814  0.72333209     0.38300
C788        C  0.27911860  0.50664705  0.68779316     0.38300
C789        C  0.22085933  0.50728807  0.81342243     0.35700
C790        C  0.18812810  0.50703838  0.77780372     0.38300
C791        C  0.32257619  0.49031132  0.80581839    -0.19200
C792        C  0.30092448  0.49107172  0.82759372    -0.19200
C793        C  0.19778695  0.49225347  0.67320144    -0.19200
C794        C  0.17602561  0.49200310  0.69492466    -0.19200
C795        C  0.32713336  0.51146788  0.69684840    -0.20300
C796        C  0.30649146  0.51195368  0.67442194    -0.20300
C797        C  0.19381658  0.51245832  0.82690483    -0.20300
C798        C  0.17314293  0.51229486  0.80444386    -0.20300
C799        C  0.32520297  0.50215075  0.75160438    -0.15600
C800        C  0.24790885  0.50406091  0.82892837    -0.15600
C801        C  0.17436926  0.50340275  0.74945467    -0.15600
C802        C  0.25186191  0.50402330  0.67227759    -0.15600
H803        H  0.34532663  0.48441096  0.80930761     0.17300
H804        H  0.30378165  0.48563805  0.85089721     0.17300
H805        H  0.19450851  0.48718299  0.64975190     0.17300
H806        H  0.15276999  0.48685716  0.69125001     0.17300
H807        H  0.35081905  0.51462332  0.69390822     0.15600
H808        H  0.31115366  0.51562230  0.65095414     0.15600
H809        H  0.18935844  0.51562623  0.85049650     0.15600
H810        H  0.14963986  0.51531866  0.80748304     0.15600
H811        H  0.26705891  0.51438886  0.76912581     0.28800
H812        H  0.23358255  0.51412762  0.73217682     0.28800
C813        C  0.24826241  0.50387149  0.88930748    -0.10600
C814        C  0.24764899  0.50399106  0.86196155    -0.12200
C815        C  0.25228859  0.50538131  0.61207194    -0.10600
C816        C  0.25226083  0.50469945  0.63935443    -0.12200
C817        C  0.11540719  0.50213700  0.74887207    -0.10600
C818        C  0.14216881  0.50269768  0.74882117    -0.12200
C819        C  0.38403181  0.50120196  0.75242040    -0.10600
C820        C  0.35731898  0.50149067  0.75232592    -0.12200
C821        C  0.11831102  0.50011223  0.50130479    -0.10600
C822        C  0.14500989  0.49983579  0.50128495    -0.12200
C823        C  0.38651783  0.50235661  0.49939419    -0.10600
C824        C  0.35988249  0.50386068  0.49961250    -0.12200
C825        C  0.00180809  0.50093805  0.86259229    -0.10600
C826        C  0.00218550  0.50041250  0.88907756    -0.12200
C827        C  0.99945230  0.50085985  0.61266683    -0.10600
C828        C  0.99928535  0.50053480  0.63918722    -0.12200
C829        C  0.99889384  0.85806531  0.75137759    -0.10600
C830        C  0.99883799  0.88480149  0.75171621    -0.12200
C831        C  0.00051603  0.61611786  0.74845887    -0.10600
C832        C  0.00052758  0.64282604  0.74820586    -0.12200
C833        C  0.50204826  0.75122210  0.88865530    -0.10600
C834        C  0.50190890  0.75155498  0.86127608    -0.12200
C835        C  0.49801836  0.75084128  0.63834908    -0.10600
C836        C  0.49689724  0.75081989  0.61110720    -0.12200
C837        C  0.99965379  0.88515274  0.49858941    -0.10600
C838        C  0.99903973  0.85835000  0.49899622    -0.12200
C839        C  0.99947006  0.64346258  0.99959613    -0.10600
C840        C  0.99967297  0.61676012  0.99944636    -0.12200
N841        N  0.49981383  0.21875430  0.03298058    -0.33900
N842        N  0.00112284  0.21874522  0.46726211    -0.54500
N843        N  0.99919649  0.28194606  0.46697937    -0.33900
N844        N  0.49826183  0.28236057  0.03397494    -0.54500
C845        C  0.00542805  0.18964768  0.02702253     0.29600
C846        C  0.50450617  0.22393623  0.06261220     0.29600
C847        C  0.00450452  0.27702649  0.43740988     0.29600
C848        C  0.50478562  0.31067533  0.47319031     0.29600
C849        C  0.99749879  0.18947016  0.47283469     0.38300
C850        C  0.99722491  0.22229397  0.43742289     0.38300
C851        C  0.49412671  0.27769256  0.06367269     0.38300
C852        C  0.49393374  0.31142405  0.02917921     0.38300
C853        C  0.01429638  0.17618062  0.05320230    -0.19200
C854        C  0.51490240  0.19856318  0.07564347    -0.19200
C855        C  0.01336784  0.30345726  0.42403766    -0.19200
C856        C  0.51508473  0.32458579  0.44735017    -0.19200
C857        C  0.99170903  0.17430616  0.44629793    -0.20300
C858        C  0.99150979  0.19505853  0.42395612    -0.20300
C859        C  0.48731440  0.30398889  0.07785351    -0.20300
C860        C  0.48726570  0.32533404  0.05608267    -0.20300
C861        C  0.00135887  0.17583999  0.50097768    -0.15600
C862        C  0.49869365  0.25055397  0.07841761    -0.15600
C863        C  0.49791675  0.32611423  0.00141729    -0.15600
C864        C  0.00034321  0.24959564  0.42203224    -0.15600
H865        H  0.02055364  0.15343380  0.05599146     0.17300
H866        H  0.52056054  0.19545868  0.09887300     0.17300
H867        H  0.01897977  0.30700417  0.40074689     0.17300
H868        H  0.52143366  0.34773016  0.44475095     0.17300
H869        H  0.98827136  0.15066351  0.44325993     0.15600
H870        H  0.98777786  0.19055152  0.40048092     0.15600
H871        H  0.48333419  0.30755422  0.10147844     0.15600
H872        H  0.48320273  0.34856583  0.05975903     0.15600
H873        H  0.48904649  0.23239380  0.01827107     0.28800
H874        H  0.48756681  0.26702819  0.48121063     0.28800
N875        N  0.99553045  0.21723078  0.28315944    -0.33900
N876        N  0.99913763  0.28113828  0.28385453    -0.54500
N877        N  0.99848049  0.28115767  0.21703650    -0.33900
N878        N  0.99801034  0.21733272  0.21625273    -0.54500
C879        C  0.99966729  0.22184243  0.31298236     0.29600
C880        C  0.99935466  0.18812226  0.27740858     0.29600
C881        C  0.00332504  0.31036684  0.22268216     0.29600
C882        C  0.00254679  0.27660319  0.18720944     0.29600
C883        C  0.99616857  0.27694692  0.31378774     0.38300
C884        C  0.99727400  0.31056117  0.27899157     0.38300
C885        C  0.99432863  0.18792688  0.22106867     0.38300
C886        C  0.99555709  0.22153579  0.18635210     0.38300
C887        C  0.00542621  0.19506971  0.32638599    -0.19200
C888        C  0.00522128  0.17389441  0.30408861    -0.19200
C889        C  0.01012825  0.32467273  0.19596747    -0.19200
C890        C  0.00967445  0.30345122  0.17371941    -0.19200
C891        C  0.99272572  0.30394510  0.32803660    -0.20300
C892        C  0.99340275  0.32515549  0.30610813    -0.20300
C893        C  0.98978021  0.17333481  0.19395863    -0.20300
C894        C  0.99054621  0.19456521  0.17206255    -0.20300
C895        C  0.99793641  0.24932877  0.32861417    -0.15600
C896        C  0.99682147  0.17363846  0.24911068    -0.15600
C897        C  0.99907687  0.24917042  0.17160730    -0.15600
C898        C  0.00049233  0.32487428  0.25085712    -0.15600
H899        H  0.00959547  0.19115358  0.34979466     0.17300
H900        H  0.00904041  0.15059186  0.30725043     0.17300
H901        H  0.01483401  0.34807596  0.19273264     0.17300
H902        H  0.01408603  0.30742022  0.15025812     0.17300
H903        H  0.99015405  0.30800003  0.35177018     0.15600
H904        H  0.99154995  0.34872826  0.30980547     0.15600
H905        H  0.98649517  0.14976225  0.19025794     0.15600
H906        H  0.98791806  0.19054536  0.14832865     0.15600
H907        H  0.98807140  0.23232949  0.26785345     0.28800
H908        H  0.99013093  0.26597538  0.23236787     0.28800
O909        O  0.98656665  0.02011976  0.43375660    -0.75800
C910        C  0.91761133  0.00034702  0.49861666     0.85200
O911        O  0.52403446  0.07170521  0.01804807    -0.76900
O912        O  0.98169342  0.48365726  0.06743830    -0.78400
O913        O  0.51963227  0.43002947  0.48454801    -0.78200
O914        O  0.51900873  0.48196184  0.43266620    -0.76900
Zn915      Zn  0.97643400  0.02730886  0.47619100     1.55700
O916        O  0.97948536  0.42994898  0.01676787    -0.78300
Cd917      Cd  0.52807509  0.47477836  0.47637480     1.59700
Cd918      Cd  0.52979861  0.02686176  0.02564520     1.59600
O919        O  0.57287944  0.48394962  0.48359484    -0.78200
O920        O  0.00332252  0.00116585  0.00017662    -1.88700
Cd921      Cd  0.97262917  0.47474343  0.02384766     1.59900
O922        O  0.57442227  0.01834874  0.01994828    -0.78200
O923        O  0.92832266  0.48232775  0.01634030    -0.76900
C924        C  0.50239090  0.08426890  0.50020528     0.85700
C925        C  0.00456241  0.00366871  0.42006980     0.85300
O926        O  0.93242398  0.01861528  0.48240720    -0.75800
C927        C  0.49829603  0.41693536  0.00205998     0.86200
O928        O  0.98429328  0.07093432  0.48451548    -0.75900
C929        C  0.58792953  0.00083997  0.00254244     0.86300
C930        C  0.50026995  0.00037452  0.08127957     0.86600
O931        O  0.51872125  0.01820496  0.06880563    -0.78300
O932        O  0.98289134  0.01504886  0.18459146    -0.75800
C933        C  0.91799961  0.99800916  0.25367886     0.85200
O934        O  0.52012714  0.07264860  0.26489036    -0.76900
O935        O  0.98253582  0.48208698  0.31750473    -0.78400
O936        O  0.52071973  0.43037886  0.23227739    -0.78200
O937        O  0.52017450  0.48498494  0.18230240    -0.76900
Zn938      Zn  0.97529464  0.02379592  0.22708410     1.55700
O939        O  0.98251381  0.42874664  0.26675417    -0.78300
Cd940      Cd  0.52822993  0.47547286  0.22565441     1.59700
Cd941      Cd  0.52857747  0.02849549  0.27251227     1.59600
O942        O  0.57270623  0.48473980  0.23367911    -0.78200
O943        O  0.00149847  0.99988668  0.25021109    -1.88700
Cd944      Cd  0.97440297  0.47315815  0.27376869     1.59900
O945        O  0.57310933  0.02151945  0.26384328    -0.78200
O946        O  0.93001366  0.47980382  0.26629760    -0.76900
C947        C  0.50040904  0.08443283  0.24910715     0.85700
C948        C  0.00031303  0.99844267  0.17037552     0.85300
O949        O  0.93204528  0.01491060  0.23554195    -0.75800
C950        C  0.50210156  0.41614529  0.24864098     0.86200
O951        O  0.98235485  0.06772693  0.23380041    -0.75900
C952        C  0.58619565  0.00217562  0.24821217     0.86300
C953        C  0.49993739  0.49876128  0.33071306     0.86600
O954        O  0.52120955  0.02083560  0.31670086    -0.78300
N955        N  0.78627661  0.99696159  0.03311009    -0.33900
N956        N  0.72274423  0.00091609  0.03465559    -0.54500
N957        N  0.71877940  0.99746269  0.46794096    -0.33900
N958        N  0.78264820  0.99918247  0.46646094    -0.54500
C959        C  0.78236724  0.00114619  0.06303642     0.29600
C960        C  0.81551575  0.00079675  0.02700444     0.29600
C961        C  0.68982199  0.00173191  0.47399895     0.29600
C962        C  0.72308765  0.00167157  0.43810733     0.29600
C963        C  0.72713056  0.99793296  0.06450086     0.38300
C964        C  0.69316778  0.99846071  0.03015732     0.38300
C965        C  0.81204355  0.99641423  0.47081168     0.38300
C966        C  0.77799659  0.99676356  0.43655556     0.38300
C967        C  0.80965056  0.00696375  0.07615362    -0.19200
C968        C  0.83048535  0.00673266  0.05354941    -0.19200
C969        C  0.67543980  0.00818990  0.44755840    -0.19200
C970        C  0.69634649  0.00814133  0.42503322    -0.19200
C971        C  0.70014886  0.99417873  0.07904794    -0.20300
C972        C  0.67872565  0.99446189  0.05741103    -0.20300
C973        C  0.82616649  0.99265328  0.44343234    -0.20300
C974        C  0.80467534  0.99288122  0.42184105    -0.20300
C975        C  0.75502471  0.99931642  0.07899101    -0.15600
C976        C  0.82941866  0.99839788  0.99846964    -0.15600
C977        C  0.75023737  0.99911879  0.42217285    -0.15600
C978        C  0.67858970  0.00088169  0.00223041    -0.15600
H979        H  0.81412073  0.01115909  0.09957414     0.17300
H980        H  0.85405482  0.01066615  0.05640799     0.17300
H981        H  0.65219434  0.01246576  0.44468571     0.17300
H982        H  0.69226341  0.01247313  0.40167264     0.17300
H983        H  0.69625824  0.99133280  0.10276249     0.15600
H984        H  0.65512217  0.99201522  0.06137174     0.15600
H985        H  0.84961214  0.99025657  0.43935027     0.15600
H986        H  0.80833355  0.99052802  0.39802571     0.15600
H987        H  0.77054969  0.98935815  0.01796170     0.28800
H988        H  0.73384487  0.98952287  0.48293944     0.28800
N989        N  0.78284514  0.99850013  0.28459719    -0.33900
N990        N  0.78496030  0.99997007  0.21796786    -0.54500
N991        N  0.72136001  0.99820889  0.21670787    -0.33900
N992        N  0.71947419  0.00013345  0.28339931    -0.54500
C993        C  0.81194673  0.00456779  0.27949087     0.29600
C994        C  0.77734913  0.00417076  0.31396973     0.29600
C995        C  0.72736142  0.00381912  0.18738851     0.29600
C996        C  0.69272532  0.00477035  0.22187848     0.29600
C997        C  0.81369812  0.99513233  0.22404747     0.38300
C998        C  0.78132498  0.99505998  0.18820726     0.38300
C999        C  0.72271165  0.99617722  0.31326381     0.35700
C1000       C  0.69025614  0.99653585  0.27749847     0.38300
C1001       C  0.82515985  0.01405802  0.30597781    -0.19200
C1002       C  0.80337419  0.01377651  0.32767458    -0.19200
C1003       C  0.70208868  0.01371231  0.17375906    -0.19200
C1004       C  0.68029246  0.01430894  0.19543242    -0.19200
C1005       C  0.82843692  0.98742980  0.19792335    -0.20300
C1006       C  0.80796434  0.98740855  0.17527713    -0.20300
C1007       C  0.69535426  0.99032993  0.32644106    -0.20300
C1008       C  0.67482710  0.99057839  0.30386085    -0.20300
C1009       C  0.82737206  0.99952160  0.25228285    -0.15600
C1010       C  0.74979000  0.99972592  0.32894652    -0.15600
C1011       C  0.67694546  0.00078002  0.24923365    -0.15600
C1012       C  0.75466275  0.99912211  0.17240151    -0.15600
H1013       H  0.84822455  0.02026460  0.30942191     0.17300
H1014       H  0.80639213  0.01994470  0.35089803     0.17300
H1015       H  0.69960282  0.01997388  0.15062168     0.17300
H1016       H  0.65776078  0.02096803  0.19203886     0.17300
H1017       H  0.85163006  0.98257978  0.19537113     0.15600
H1018       H  0.81224128  0.98247929  0.15195985     0.15600
H1019       H  0.69061888  0.98665354  0.34990019     0.15600
H1020       H  0.65115248  0.98717076  0.30663973     0.15600
H1021       H  0.76858281  0.98786535  0.26960304     0.28800
H1022       H  0.73488209  0.98757024  0.23165142     0.28800
C1023       C  0.74960311  0.99955912  0.38921332    -0.10600
C1024       C  0.74935234  0.99973612  0.36190374    -0.12200
C1025       C  0.75555512  0.99943053  0.11202733    -0.10600
C1026       C  0.75540579  0.99933098  0.13938425    -0.12200
C1027       C  0.61806667  0.00219871  0.24803300    -0.10600
C1028       C  0.64480550  0.00174896  0.24833541    -0.12200
C1029       C  0.88618094  0.99826751  0.25402406    -0.10600
C1030       C  0.85948248  0.99891921  0.25344765    -0.12200
C1031       C  0.61972428  0.00092855  0.00293926    -0.10600
C1032       C  0.64644308  0.00095063  0.00275232    -0.12200
C1033       C  0.88823394  0.99926007  0.99787411    -0.10600
C1034       C  0.86153656  0.99883966  0.99787580    -0.12200
C1035       C  0.50491424  0.00338175  0.36219247    -0.10600
C1036       C  0.50435241  0.00276823  0.38872367    -0.12200
C1037       C  0.49907107  0.00028864  0.11258054    -0.10600
C1038       C  0.49902368  0.00016670  0.13908905    -0.12200
C1039       C  0.50175598  0.35777360  0.25046630    -0.10600
C1040       C  0.50242666  0.38443597  0.24924393    -0.12200
C1041       C  0.49884658  0.11618373  0.24872953    -0.10600
C1042       C  0.49766236  0.14286553  0.24884143    -0.12200
C1043       C  0.99983508  0.24942840  0.38899992    -0.10600
C1044       C  0.99900878  0.24928248  0.36164944    -0.12200
C1045       C  0.99973241  0.24938384  0.13864889    -0.10600
C1046       C  0.00007170  0.24961648  0.11134284    -0.12200
C1047       C  0.49763914  0.38506976  0.00220365    -0.10600
C1048       C  0.49767965  0.35831454  0.00178403    -0.12200
C1049       C  0.50277147  0.14288294  0.49904554    -0.10600
C1050       C  0.50266163  0.11612943  0.49953777    -0.12200
N1051       N  0.49923678  0.21834223  0.53242327    -0.33900
N1052       N  0.00065103  0.21820884  0.96619721    -0.54500
N1053       N  0.99781065  0.28177450  0.96709378    -0.33900
N1054       N  0.49838854  0.28166650  0.53340915    -0.54500
C1055       C  0.00503708  0.19112875  0.52857828     0.29600
C1056       C  0.50469775  0.22362486  0.56187681     0.29600
C1057       C  0.00146107  0.27741243  0.93716752     0.29600
C1058       C  0.50264520  0.31177201  0.97342647     0.29600
C1059       C  0.99785392  0.18877663  0.97118989     0.38300
C1060       C  0.99701522  0.22219733  0.93641746     0.38300
C1061       C  0.49305862  0.27688443  0.56291729     0.38300
C1062       C  0.49361215  0.31059946  0.52830887     0.38300
C1063       C  0.01400564  0.17824158  0.55502822    -0.19200
C1064       C  0.51637945  0.19862995  0.57448027    -0.19200
C1065       C  0.00693069  0.30453697  0.92358174    -0.19200
C1066       C  0.51085984  0.32626313  0.94720566    -0.19200
C1067       C  0.99278271  0.17393176  0.94432307    -0.20300
C1068       C  0.99229968  0.19505653  0.92236143    -0.20300
C1069       C  0.48492682  0.30298009  0.57667080    -0.20300
C1070       C  0.48534212  0.32432885  0.55481630    -0.20300
C1071       C  0.00178547  0.17480379  0.99914072    -0.15600
C1072       C  0.49791059  0.24986847  0.57783849    -0.15600
C1073       C  0.49911493  0.32532163  0.50078776    -0.15600
C1074       C  0.99896792  0.24986303  0.92159164    -0.15600
H1075       H  0.02055061  0.15564109  0.55822787     0.17300
H1076       H  0.52276411  0.19569123  0.59753401     0.17300
H1077       H  0.01058517  0.30870395  0.90003305     0.17300
H1078       H  0.51579242  0.34968762  0.94442399     0.17300
H1079       H  0.99001059  0.15027980  0.94082365     0.15600
H1080       H  0.98889256  0.19087200  0.89876448     0.15600
H1081       H  0.47976685  0.30641657  0.60006914     0.15600
H1082       H  0.48059509  0.34745268  0.55818781     0.15600
H1083       H  0.48728489  0.23154793  0.51821813     0.28800
H1084       H  0.48876742  0.26719346  0.98207249     0.28800
N1085       N  0.99837470  0.21837464  0.78273126    -0.33900
N1086       N  0.99673211  0.28212375  0.78400848    -0.54500
N1087       N  0.99447909  0.28249338  0.71743779    -0.33900
N1088       N  0.99931250  0.21903693  0.71605751    -0.54500
C1089       C  0.00255429  0.22311551  0.81249354     0.29600
C1090       C  0.00435441  0.18977403  0.77671211     0.29600
C1091       C  0.99818847  0.31177691  0.72333572     0.29600
C1092       C  0.99888173  0.27843399  0.68761896     0.29600
C1093       C  0.99356167  0.27734675  0.81380243     0.38300
C1094       C  0.99183999  0.31112603  0.77940669     0.38300
C1095       C  0.99780391  0.18946754  0.72063738     0.38300
C1096       C  0.99551675  0.22324758  0.68632622     0.38300
C1097       C  0.01089162  0.19695045  0.82559353    -0.19200
C1098       C  0.01199661  0.17598118  0.80313465    -0.19200
C1099       C  0.00457240  0.32658369  0.69680993    -0.19200
C1100       C  0.00495442  0.30561735  0.67436956    -0.19200
C1101       C  0.98690908  0.30356738  0.82821954    -0.20300
C1102       C  0.98586611  0.32491887  0.80651943    -0.20300
C1103       C  0.99347550  0.17481558  0.69353166    -0.20300
C1104       C  0.99199934  0.19616544  0.67188785    -0.20300
C1105       C  0.99799674  0.25002511  0.82835652    -0.15600
C1106       C  0.00166219  0.17523205  0.74850219    -0.15600
C1107       C  0.99668989  0.25109054  0.67182403    -0.15600
C1108       C  0.99439918  0.32587379  0.75152763    -0.15600
H1109       H  0.01562787  0.19326796  0.84893663     0.17300
H1110       H  0.01764481  0.15307162  0.80603177     0.17300
H1111       H  0.00835512  0.35015588  0.69381450     0.17300
H1112       H  0.00922111  0.30995738  0.65094035     0.17300
H1113       H  0.98327497  0.30701474  0.85190253     0.15600
H1114       H  0.98139183  0.34804158  0.81033246     0.15600
H1115       H  0.99172617  0.15115069  0.68966845     0.15600
H1116       H  0.98883574  0.19216686  0.64822576     0.15600
H1117       H  0.98908572  0.23277533  0.76777664     0.28800
H1118       H  0.98639579  0.26683414  0.73249529     0.28800
O1119       O  0.98781487  0.01775768  0.93431965    -0.75800
C1120       C  0.91995855  0.99931192  0.99867728     0.85200
O1121       O  0.52019713  0.07147563  0.51743760    -0.76900
O1122       O  0.98251740  0.48299651  0.56774699    -0.78400
O1123       O  0.51708769  0.43037823  0.98528396    -0.78200
O1124       O  0.51956498  0.48243869  0.93316131    -0.76900
Zn1125     Zn  0.97857048  0.02605167  0.97643688     1.55700
O1126       O  0.98226372  0.42955866  0.51686834    -0.78300
Cd1127     Cd  0.52641464  0.47476686  0.97725715     1.59700
Cd1128     Cd  0.52695777  0.02688061  0.52444697     1.59600
O1129       O  0.57098502  0.48292194  0.98559826    -0.78200
O1130       O  0.00104974  0.00198909  0.49987075    -1.88700
Cd1131     Cd  0.97499747  0.47405481  0.52398517     1.59900
O1132       O  0.57156725  0.01953831  0.51747003    -0.78200
O1133       O  0.93083124  0.48152728  0.51629588    -0.76900
C1134       C  0.50612806  0.08456868  0.00092663     0.85700
C1135       C  0.00558072  0.00123902  0.92048206     0.85300
O1136       O  0.93475391  0.01784435  0.98283174    -0.75800
C1137       C  0.50061436  0.41631610  0.50089666     0.86200
O1138       O  0.98651990  0.06961661  0.98357242    -0.75900
C1139       C  0.58497819  0.00058974  0.50167171     0.86300
C1140       C  0.49893476  0.00036259  0.58087097     0.86600
O1141       O  0.51753577  0.01770909  0.56793765    -0.78300
O1142       O  0.98340968  0.01663452  0.68457057    -0.75800
C1143       C  0.91789415  0.00107369  0.75153079     0.85200
O1144       O  0.52026359  0.07194780  0.76760558    -0.76900
O1145       O  0.98246147  0.48356560  0.81854630    -0.78400
O1146       O  0.51580700  0.43055616  0.73205093    -0.78200
O1147       O  0.51616579  0.48445920  0.68191758    -0.76900
Zn1148     Zn  0.97625768  0.02625837  0.72688252     1.55700
O1149       O  0.97766358  0.43048184  0.76765395    -0.78300
Cd1150     Cd  0.52482653  0.47536646  0.72522254     1.59700
Cd1151     Cd  0.52791990  0.02741768  0.77413024     1.59600
O1152       O  0.56973405  0.48333594  0.73234417    -0.78200
O1153       O  0.00119181  0.00128715  0.75041808    -1.88700
Cd1154     Cd  0.97217739  0.47517840  0.77527073     1.59900
O1155       O  0.57241126  0.02056659  0.76580175    -0.78200
O1156       O  0.92788857  0.48340599  0.76926796    -0.76900
C1157       C  0.50199170  0.08440594  0.75060137     0.85700
C1158       C  0.00008763  0.99921722  0.67046823     0.85300
O1159       O  0.93262954  0.01901376  0.73496773    -0.75800
C1160       C  0.49752686  0.41683165  0.74918016     0.86200
O1161       O  0.98550880  0.06997376  0.73268162    -0.75900
C1162       C  0.58573891  0.00224341  0.74917046     0.86300
C1163       C  0.50119904  0.50140095  0.83068108     0.86600
O1164       O  0.52017305  0.01787444  0.81783274    -0.78300
N1165       N  0.78357426  0.99645323  0.53323307    -0.33900
N1166       N  0.71976543  0.99846863  0.53463325    -0.54500
N1167       N  0.72164668  0.99926573  0.96774293    -0.33900
N1168       N  0.78535474  0.99945976  0.96611427    -0.54500
C1169       C  0.77934611  0.00151295  0.56298585     0.29600
C1170       C  0.81264575  0.00183067  0.52707208     0.29600
C1171       C  0.69273226  0.00358931  0.97382571     0.29600
C1172       C  0.72588234  0.00298625  0.93784278     0.29600
C1173       C  0.72422576  0.99578207  0.56448022     0.38300
C1174       C  0.69018518  0.99587898  0.53019714     0.38300
C1175       C  0.81472003  0.99661168  0.97047490     0.38300
C1176       C  0.78073560  0.99759522  0.93617007     0.38300
C1177       C  0.80624679  0.00948770  0.57590819    -0.19200
C1178       C  0.82717475  0.00966338  0.55337403    -0.19200
C1179       C  0.67826608  0.00971173  0.94733637    -0.19200
C1180       C  0.69910895  0.00935931  0.92475210    -0.19200
C1181       C  0.69729039  0.99172348  0.57908890    -0.20300
C1182       C  0.67580362  0.99176790  0.55747054    -0.20300
C1183       C  0.82889197  0.99339030  0.94303090    -0.20300
C1184       C  0.80743802  0.99399363  0.92142066    -0.20300
C1185       C  0.75205110  0.99873090  0.57894360    -0.15600
C1186       C  0.82679378  0.99903859  0.49871160    -0.15600
C1187       C  0.75294519  0.00002872  0.92184079    -0.15600
C1188       C  0.67560205  0.99887778  0.50235082    -0.15600
H1189       H  0.81038068  0.01493211  0.59913950     0.17300
H1190       H  0.85048757  0.01519984  0.55608088     0.17300
H1191       H  0.65500277  0.01391206  0.94447617     0.17300
H1192       H  0.69494900  0.01334822  0.90133806     0.17300
H1193       H  0.69345827  0.98932157  0.60287782     0.15600
H1194       H  0.65219743  0.98942353  0.56147575     0.15600
H1195       H  0.85233948  0.99102917  0.93892205     0.15600
H1196       H  0.81114139  0.99202229  0.89759007     0.15600
H1197       H  0.76833566  0.98722693  0.51842882     0.28800
H1198       H  0.73668901  0.99149102  0.98288469     0.28800
N1199       N  0.78338066  0.99908335  0.78356610    -0.33900
N1200       N  0.78407865  0.00143010  0.71704260    -0.54500
N1201       N  0.72048948  0.00095604  0.71727686    -0.33900
N1202       N  0.71979035  0.00141358  0.78382922    -0.54500
C1203       C  0.81252870  0.00453999  0.77807193     0.29600
C1204       C  0.77856811  0.00387159  0.81321965     0.29600
C1205       C  0.72586560  0.00655268  0.68785255     0.29600
C1206       C  0.69190505  0.00725742  0.72303792     0.29600
C1207       C  0.81305248  0.99700756  0.72224774     0.38300
C1208       C  0.77983411  0.99741262  0.68725876     0.38300
C1209       C  0.72370637  0.99675971  0.81348788     0.35700
C1210       C  0.69045323  0.99781582  0.77846378     0.38300
C1211       C  0.82649691  0.01249577  0.80464857    -0.19200
C1212       C  0.80512353  0.01209322  0.82672688    -0.19200
C1213       C  0.70028713  0.01641140  0.67477640    -0.19200
C1214       C  0.67891577  0.01687628  0.69689788    -0.19200
C1215       C  0.82735358  0.99047521  0.69553969    -0.20300
C1216       C  0.80633520  0.99069626  0.67344045    -0.20300
C1217       C  0.69663490  0.99047339  0.82710257    -0.20300
C1218       C  0.67560877  0.99113208  0.80498641    -0.20300
C1219       C  0.82729449  0.00077460  0.75024837    -0.15600
C1220       C  0.75115911  0.99987174  0.82862787    -0.15600
C1221       C  0.67658152  0.00247564  0.75052956    -0.15600
C1222       C  0.75275260  0.00152801  0.67222058    -0.15600
H1223       H  0.84977363  0.01786997  0.80789691     0.17300
H1224       H  0.80877566  0.01733497  0.85006561     0.17300
H1225       H  0.69725235  0.02245495  0.65164235     0.17300
H1226       H  0.65622504  0.02323390  0.69393515     0.17300
H1227       H  0.85060715  0.98626964  0.69224526     0.15600
H1228       H  0.81020768  0.98669298  0.64987486     0.15600
H1229       H  0.69243303  0.98610150  0.85053772     0.15600
H1230       H  0.65201334  0.98746022  0.80817122     0.15600
H1231       H  0.76848833  0.98963964  0.76845914     0.28800
H1232       H  0.73425619  0.99013066  0.73181142     0.28800
C1233       C  0.75209717  0.00002647  0.88888114    -0.10600
C1234       C  0.75133315  0.99989086  0.86158230    -0.12200
C1235       C  0.75251979  0.00014848  0.61192010    -0.10600
C1236       C  0.75262438  0.00107391  0.63924095    -0.12200
C1237       C  0.61762057  0.00253161  0.74933395    -0.10600
C1238       C  0.64438068  0.00265606  0.74995720    -0.12200
C1239       C  0.88613512  0.00138031  0.75098562    -0.10600
C1240       C  0.85942988  0.00122242  0.75049251    -0.12200
C1241       C  0.61676765  0.00034685  0.50248286    -0.10600
C1242       C  0.64346747  0.99973901  0.50281816    -0.12200
C1243       C  0.88577491  0.00036404  0.49798949    -0.10600
C1244       C  0.85901333  0.99989730  0.49816227    -0.12200
C1245       C  0.50339561  0.99963098  0.86269984    -0.10600
C1246       C  0.50392740  0.99979958  0.88923870    -0.12200
C1247       C  0.49835162  0.00033343  0.61223795    -0.10600
C1248       C  0.49844911  0.00030454  0.63877945    -0.12200
C1249       C  0.49659826  0.35821109  0.74950705    -0.10600
C1250       C  0.49687217  0.38496738  0.74920991    -0.12200
C1251       C  0.50132184  0.11623397  0.75019525    -0.10600
C1252       C  0.50018461  0.14292960  0.74989490    -0.12200
C1253       C  0.99882446  0.24993297  0.88862239    -0.10600
C1254       C  0.99853737  0.24977850  0.86131000    -0.12200
C1255       C  0.99675016  0.25167696  0.63894043    -0.10600
C1256       C  0.99704822  0.25207490  0.61167894    -0.12200
C1257       C  0.50006889  0.38438357  0.50105584    -0.10600
C1258       C  0.49960460  0.35757982  0.50096059    -0.12200
C1259       C  0.50579420  0.14325350  0.99945109    -0.10600
C1260       C  0.50632980  0.11649141  0.00017849    -0.12200
N1261       N  0.50007237  0.71860256  0.03318116    -0.33900
N1262       N  0.99953225  0.71795799  0.46645451    -0.54500
N1263       N  0.99659857  0.78183999  0.46626230    -0.33900
N1264       N  0.50237038  0.78203087  0.03430981    -0.54500
C1265       C  0.00288272  0.69051653  0.02738600     0.29600
C1266       C  0.50490133  0.72325695  0.06287298     0.29600
C1267       C  0.00133265  0.77686274  0.43662735     0.29600
C1268       C  0.50184937  0.81065100  0.47260049     0.29600
C1269       C  0.99765485  0.68845792  0.47156238     0.38300
C1270       C  0.99631857  0.72166959  0.43656510     0.38300
C1271       C  0.49734073  0.77748567  0.06391762     0.38300
C1272       C  0.49796367  0.81101538  0.02916377     0.38300
C1273       C  0.01129950  0.67708357  0.05373179    -0.19200
C1274       C  0.51315778  0.69701468  0.07583918    -0.19200
C1275       C  0.00885739  0.80347316  0.42285468    -0.19200
C1276       C  0.51021363  0.82480938  0.44622526    -0.19200
C1277       C  0.99363392  0.67336848  0.44467040    -0.20300
C1278       C  0.99268861  0.69434564  0.42261253    -0.20300
C1279       C  0.49012403  0.80383662  0.07773364    -0.20300
C1280       C  0.49049095  0.82504294  0.05577487    -0.20300
C1281       C  0.00085072  0.67462960  0.49975320    -0.15600
C1282       C  0.50053873  0.75013266  0.07875886    -0.15600
C1283       C  0.50251555  0.82549755  0.00136147    -0.15600
C1284       C  0.99830486  0.74919827  0.42144996    -0.15600
H1285       H  0.01724402  0.65426869  0.05669740     0.17300
H1286       H  0.51821576  0.69330673  0.09911627     0.17300
H1287       H  0.01393929  0.80702849  0.39945009     0.17300
H1288       H  0.51506438  0.84820403  0.44310557     0.17300
H1289       H  0.99167773  0.64965174  0.44123233     0.15600
H1290       H  0.98990990  0.68992773  0.39897665     0.15600
H1291       H  0.48515315  0.80742789  0.10115901     0.15600
H1292       H  0.48596687  0.84822557  0.05909248     0.15600
H1293       H  0.49044005  0.73303102  0.01845920     0.28800
H1294       H  0.48739490  0.76641658  0.48171457     0.28800
N1295       N  0.99783087  0.71757694  0.28286522    -0.33900
N1296       N  0.99830282  0.78121257  0.28386313    -0.54500
N1297       N  0.99640833  0.78154921  0.21716253    -0.33900
N1298       N  0.99918875  0.71802244  0.21611868    -0.54500
C1299       C  0.00223340  0.72233140  0.31258123     0.29600
C1300       C  0.00349865  0.68890191  0.27693099     0.29600
C1301       C  0.00147550  0.81067298  0.22305922     0.29600
C1302       C  0.00076491  0.77725419  0.18735634     0.29600
C1303       C  0.99440963  0.77665908  0.31361503     0.38300
C1304       C  0.99450964  0.81036647  0.27908318     0.38300
C1305       C  0.99647843  0.68852183  0.22095148     0.38300
C1306       C  0.99527316  0.72220600  0.18636947     0.38300
C1307       C  0.01046137  0.69615888  0.32573194    -0.19200
C1308       C  0.01126795  0.67512174  0.30332994    -0.19200
C1309       C  0.00866892  0.82517238  0.19654898    -0.19200
C1310       C  0.00815858  0.80415696  0.17411122    -0.19200
C1311       C  0.98837125  0.80313960  0.32783074    -0.20300
C1312       C  0.98849821  0.82445807  0.30604105    -0.20300
C1313       C  0.99128606  0.67387960  0.19399827    -0.20300
C1314       C  0.99050227  0.69515686  0.17219310    -0.20300
C1315       C  0.99794279  0.74929411  0.32832712    -0.15600
C1316       C  0.00006670  0.67426983  0.24887610    -0.15600
C1317       C  0.99744068  0.74994200  0.17162333    -0.15600
C1318       C  0.99813581  0.82494778  0.25123034    -0.15600
H1319       H  0.01533067  0.69252888  0.34905587     0.17300
H1320       H  0.01673412  0.65216590  0.30625610     0.17300
H1321       H  0.01358613  0.84857475  0.19357303     0.17300
H1322       H  0.01279965  0.80826304  0.15070943     0.17300
H1323       H  0.98450198  0.80679078  0.35145033     0.15600
H1324       H  0.98478464  0.84776013  0.30970187     0.15600
H1325       H  0.98852376  0.65025128  0.19034134     0.15600
H1326       H  0.98697275  0.69112886  0.14858859     0.15600
H1327       H  0.98842428  0.73196845  0.26796650     0.28800
H1328       H  0.98756170  0.76628034  0.23221299     0.28800
O1329       O  0.98547357  0.51688171  0.43424595    -0.75800
C1330       C  0.91883190  0.50083905  0.50021126     0.85200
O1331       O  0.51924592  0.57251149  0.01613988    -0.76900
O1332       O  0.98378738  0.98171473  0.06709109    -0.78400
O1333       O  0.51720928  0.92948524  0.48340815    -0.78200
O1334       O  0.52012080  0.98339263  0.43285650    -0.76900
Zn1335     Zn  0.97775201  0.52598805  0.47670483     1.55700
O1336       O  0.98396126  0.92951977  0.01491312    -0.78300
Cd1337     Cd  0.52663966  0.97415026  0.47655739     1.59700
Cd1338     Cd  0.52673497  0.52851126  0.02378726     1.59600
O1339       O  0.57121437  0.98171318  0.48526252    -0.78200
O1340       O  0.99946250  0.50124949  0.99971704    -1.88700
Cd1341     Cd  0.97649024  0.97377973  0.02311468     1.59900
O1342       O  0.57124185  0.52165377  0.01668209    -0.78200
O1343       O  0.93236223  0.98074927  0.01530546    -0.76900
C1344       C  0.50424906  0.58444395  0.49954984     0.85700
C1345       C  0.00215391  0.49947920  0.42009998     0.85300
O1346       O  0.93400849  0.51909167  0.48440187    -0.75800
C1347       C  0.50239709  0.91608556  0.00061927     0.86200
O1348       O  0.98688177  0.56950419  0.48373216    -0.75900
C1349       C  0.58467847  0.50240823  0.00134247     0.86300
C1350       C  0.50041262  0.50355212  0.08129606     0.86600
O1351       O  0.51831853  0.52092386  0.06755322    -0.78300
O1352       O  0.98454498  0.51647963  0.18347029    -0.75800
C1353       C  0.91739943  0.49793646  0.24930137     0.85200
O1354       O  0.51982867  0.57140041  0.26795234    -0.76900
O1355       O  0.98729221  0.98379471  0.31908569    -0.78400
O1356       O  0.51836718  0.92976049  0.23292496    -0.78200
O1357       O  0.51846411  0.98314529  0.18258822    -0.76900
Zn1358     Zn  0.97554146  0.52481581  0.22575495     1.55700
O1359       O  0.98286614  0.92919887  0.26905074    -0.78300
Cd1360     Cd  0.52715183  0.97454142  0.22593996     1.59700
Cd1361     Cd  0.52712986  0.52696836  0.27478638     1.59600
O1362       O  0.57203976  0.98262334  0.23293448    -0.78200
O1363       O  0.00064464  0.50019571  0.24957756    -1.88700
Cd1364     Cd  0.97615297  0.97384828  0.27627171     1.59900
O1365       O  0.57188587  0.52053666  0.26813409    -0.78200
O1366       O  0.93125527  0.98097835  0.27136588    -0.76900
C1367       C  0.50125515  0.58378351  0.25127105     0.85700
C1368       C  0.00226841  0.49988940  0.16963989     0.85300
O1369       O  0.93196988  0.51599771  0.23272165    -0.75800
C1370       C  0.50062996  0.91602411  0.25059213     0.86200
O1371       O  0.98297015  0.56872404  0.23285185    -0.75900
C1372       C  0.58588452  0.50304591  0.25117679     0.86300
C1373       C  0.50427222  0.00275462  0.33083218     0.86600
O1374       O  0.51744042  0.51737504  0.31803985    -0.78300
N1375       N  0.78247524  0.50611710  0.03319141    -0.33900
N1376       N  0.71897843  0.50409943  0.03454570    -0.54500
N1377       N  0.72105640  0.50433547  0.46832174    -0.33900
N1378       N  0.78481578  0.50357455  0.46764590    -0.54500
C1379       C  0.77800356  0.50264879  0.06313031     0.29600
C1380       C  0.81116698  0.50050946  0.02720378     0.29600
C1381       C  0.69182254  0.49967893  0.47401206     0.29600
C1382       C  0.72562963  0.49930914  0.43865199     0.29600
C1383       C  0.72362846  0.50970383  0.06405365     0.38300
C1384       C  0.68990409  0.50809282  0.02943931     0.38300
C1385       C  0.81420989  0.50732623  0.47248925     0.38300
C1386       C  0.78064475  0.50612869  0.43775664     0.38300
C1387       C  0.80443259  0.49536247  0.07633694    -0.19200
C1388       C  0.82528487  0.49402943  0.05379468    -0.19200
C1389       C  0.67754378  0.49207104  0.44751484    -0.19200
C1390       C  0.69880062  0.49179012  0.42533235    -0.19200
C1391       C  0.69729359  0.51702934  0.07781015    -0.20300
C1392       C  0.67598510  0.51603824  0.05596302    -0.20300
C1393       C  0.82882419  0.51204838  0.44543105    -0.20300
C1394       C  0.80761247  0.51127539  0.42351320    -0.20300
C1395       C  0.75100460  0.50676935  0.07896554    -0.15600
C1396       C  0.82551467  0.50264967  0.99884160    -0.15600
C1397       C  0.75305095  0.50240554  0.42299829    -0.15600
C1398       C  0.67519253  0.50297179  0.00180748    -0.15600
H1399       H  0.80833909  0.49134036  0.09977609     0.17300
H1400       H  0.84833362  0.48894868  0.05674317     0.17300
H1401       H  0.65413289  0.48734739  0.44437683     0.17300
H1402       H  0.69486426  0.48666221  0.40201287     0.17300
H1403       H  0.69377632  0.52246699  0.10114050     0.15600
H1404       H  0.65279153  0.52048849  0.05930309     0.15600
H1405       H  0.85240177  0.51532907  0.44177070     0.15600
H1406       H  0.81164074  0.51396385  0.39979260     0.15600
H1407       H  0.76783481  0.51465080  0.01797799     0.28800
H1408       H  0.73622733  0.51329117  0.48336710     0.28800
N1409       N  0.78372342  0.50202309  0.28414824    -0.33900
N1410       N  0.78339615  0.50314208  0.21710007    -0.54500
N1411       N  0.72005135  0.50605436  0.21824505    -0.33900
N1412       N  0.72007608  0.50144042  0.28519827    -0.54500
C1413       C  0.81254634  0.49717852  0.27808758     0.29600
C1414       C  0.77912565  0.49729308  0.31386068     0.29600
C1415       C  0.72428962  0.50278030  0.18823526     0.29600
C1416       C  0.69081127  0.50161175  0.22399075     0.29600
C1417       C  0.81290277  0.50489891  0.22200882     0.38300
C1418       C  0.77940915  0.50717842  0.18733669     0.38300
C1419       C  0.72451496  0.50384449  0.31513972     0.35700
C1420       C  0.69096417  0.50562475  0.28047266     0.38300
C1421       C  0.82659497  0.48969055  0.30443863    -0.19200
C1422       C  0.80558441  0.48977781  0.32689819    -0.19200
C1423       C  0.69722941  0.49670102  0.17477316    -0.19200
C1424       C  0.67619438  0.49596342  0.19719982    -0.19200
C1425       C  0.82773801  0.50973392  0.19507506    -0.20300
C1426       C  0.80658822  0.51118827  0.17323201    -0.20300
C1427       C  0.69793555  0.50904673  0.32954218    -0.20300
C1428       C  0.67674507  0.51015802  0.30768462    -0.20300
C1429       C  0.82702038  0.50063191  0.24990400    -0.15600
C1430       C  0.75203822  0.50061343  0.32973999    -0.15600
C1431       C  0.67652921  0.50400004  0.25232746    -0.15600
C1432       C  0.75170022  0.50582218  0.17250495    -0.15600
H1433       H  0.84971014  0.48482939  0.30730400     0.17300
H1434       H  0.80941765  0.48487753  0.35018639     0.17300
H1435       H  0.69301570  0.49312348  0.15121264     0.17300
H1436       H  0.65269186  0.49185266  0.19403109     0.17300
H1437       H  0.85142021  0.51175257  0.19142965     0.15600
H1438       H  0.81079750  0.51462669  0.14965473     0.15600
H1439       H  0.69418004  0.51188700  0.35328558     0.15600
H1440       H  0.65346333  0.51388632  0.31145188     0.15600
H1441       H  0.76902230  0.51086521  0.26925345     0.28800
H1442       H  0.73543454  0.51377387  0.23371870     0.28800
C1443       C  0.75283704  0.50120244  0.39003801    -0.10600
C1444       C  0.75253044  0.50059454  0.36272111    -0.12200
C1445       C  0.75124501  0.50687427  0.11204685    -0.10600
C1446       C  0.75140191  0.50650813  0.13943017    -0.12200
C1447       C  0.61767670  0.50386868  0.25194422    -0.10600
C1448       C  0.64439148  0.50414705  0.25243428    -0.12200
C1449       C  0.88568224  0.49835697  0.24917558    -0.10600
C1450       C  0.85904103  0.49923153  0.24950882    -0.12200
C1451       C  0.61641765  0.50266007  0.00185925    -0.10600
C1452       C  0.64310300  0.50281728  0.00211413    -0.12200
C1453       C  0.88431377  0.50122100  0.99854141    -0.10600
C1454       C  0.85762295  0.50185545  0.99845004    -0.12200
C1455       C  0.49956213  0.49824009  0.36206200    -0.10600
C1456       C  0.50003124  0.49840835  0.38859287    -0.12200
C1457       C  0.50085768  0.50406905  0.11259861    -0.10600
C1458       C  0.50148714  0.50360974  0.13908264    -0.12200
C1459       C  0.49980159  0.85738826  0.25099888    -0.10600
C1460       C  0.50019666  0.88415268  0.25075370    -0.12200
C1461       C  0.50067928  0.61552123  0.25066320    -0.10600
C1462       C  0.49992282  0.64218216  0.25005206    -0.12200
C1463       C  0.99826056  0.74904870  0.38852633    -0.10600
C1464       C  0.99811034  0.74903222  0.36124185    -0.12200
C1465       C  0.99730382  0.75045127  0.13864872    -0.10600
C1466       C  0.99736273  0.75103046  0.11133177    -0.12200
C1467       C  0.50230399  0.88431080  0.00096785    -0.10600
C1468       C  0.50240430  0.85761097  0.00128794    -0.12200
C1469       C  0.50249656  0.64276918  0.49958248    -0.10600
C1470       C  0.50379194  0.61615732  0.49936786    -0.12200
N1471       N  0.49666581  0.71820179  0.53323962    -0.33900
N1472       N  0.00035555  0.71880539  0.96640155    -0.54500
N1473       N  0.00062372  0.78207687  0.96669907    -0.33900
N1474       N  0.49678641  0.78190431  0.53342430    -0.54500
C1475       C  0.00238681  0.68961354  0.52780723     0.29600
C1476       C  0.50069331  0.72337115  0.56293291     0.29600
C1477       C  0.00680943  0.77710104  0.93729574     0.29600
C1478       C  0.50741037  0.81100647  0.97355651     0.29600
C1479       C  0.99556160  0.68961803  0.97161842     0.38300
C1480       C  0.99695518  0.72278218  0.93658009     0.38300
C1481       C  0.49202301  0.77753705  0.56307610     0.38300
C1482       C  0.49210918  0.81081017  0.52811111     0.38300
C1483       C  0.00864081  0.67610522  0.55476428    -0.19200
C1484       C  0.50895453  0.69743599  0.57654784    -0.19200
C1485       C  0.01744888  0.80316898  0.92443875    -0.19200
C1486       C  0.51673783  0.82515644  0.94748914    -0.19200
C1487       C  0.98933815  0.67494274  0.94489139    -0.20300
C1488       C  0.99020325  0.69593142  0.92275288    -0.20300
C1489       C  0.48447817  0.80388008  0.57671882    -0.20300
C1490       C  0.48446493  0.82491141  0.55461681    -0.20300
C1491       C  0.99911040  0.67556935  0.99956356    -0.15600
C1492       C  0.49614304  0.75052211  0.57822749    -0.15600
C1493       C  0.49682227  0.82523834  0.50031747    -0.15600
C1494       C  0.00186167  0.75000734  0.92154062    -0.15600
H1495       H  0.01367577  0.65313164  0.55832880     0.17300
H1496       H  0.51348219  0.69411390  0.60000040     0.17300
H1497       H  0.02413725  0.80656767  0.90140100     0.17300
H1498       H  0.52285845  0.84834994  0.94483516     0.17300
H1499       H  0.98506212  0.65144671  0.94158611     0.15600
H1500       H  0.98669010  0.69181345  0.89915463     0.15600
H1501       H  0.47971669  0.80761307  0.60017176     0.15600
H1502       H  0.47974502  0.84806645  0.55779809     0.15600
H1503       H  0.48739795  0.73234192  0.51799325     0.28800
H1504       H  0.49063474  0.76742306  0.98190051     0.28800
N1505       N  0.99961424  0.71831245  0.78264016    -0.33900
N1506       N  0.00074990  0.78207504  0.78367064    -0.54500
N1507       N  0.99726412  0.78242060  0.71695228    -0.33900
N1508       N  0.99951863  0.71878560  0.71576006    -0.54500
C1509       C  0.00464057  0.72290871  0.81230932     0.29600
C1510       C  0.00426302  0.68944023  0.77655510     0.29600
C1511       C  0.00198687  0.81162360  0.72277171     0.29600
C1512       C  0.00122000  0.77812325  0.68706375     0.29600
C1513       C  0.99859578  0.77762004  0.81362453     0.38300
C1514       C  0.99716251  0.81132034  0.77909423     0.38300
C1515       C  0.99666002  0.68929274  0.72056704     0.38300
C1516       C  0.99550749  0.72303794  0.68603968     0.38300
C1517       C  0.01212626  0.69640428  0.82528146    -0.19200
C1518       C  0.01190694  0.67536373  0.80283270    -0.19200
C1519       C  0.00858917  0.82616128  0.69614540    -0.19200
C1520       C  0.00814353  0.80509440  0.67373388    -0.19200
C1521       C  0.99410997  0.80428362  0.82815351    -0.20300
C1522       C  0.99316542  0.82555091  0.80638264    -0.20300
C1523       C  0.99121616  0.67471586  0.69361870    -0.20300
C1524       C  0.99044078  0.69603093  0.67186333    -0.20300
C1525       C  0.00177042  0.75007939  0.82819871    -0.15600
C1526       C  0.00036500  0.67496115  0.74843907    -0.15600
C1527       C  0.99778567  0.75078308  0.67131257    -0.15600
C1528       C  0.99913000  0.82589286  0.75105164    -0.15600
H1529       H  0.01721983  0.69256764  0.84852637     0.17300
H1530       H  0.01671265  0.65222532  0.80564342     0.17300
H1531       H  0.01319417  0.84960772  0.69309862     0.17300
H1532       H  0.01245378  0.80922768  0.65028024     0.17300
H1533       H  0.99187264  0.80808192  0.85196906     0.15600
H1534       H  0.99015020  0.84893522  0.81028899     0.15600
H1535       H  0.98826579  0.65110799  0.68992905     0.15600
H1536       H  0.98662673  0.69204646  0.64831380     0.15600
H1537       H  0.99067612  0.73306016  0.76783053     0.28800
H1538       H  0.98887937  0.76709626  0.73217601     0.28800
O1539       O  0.98424638  0.51696561  0.93383179    -0.75800
C1540       C  0.91607708  0.50056711  0.99915197     0.85200
O1541       O  0.52227831  0.57185008  0.51664932    -0.76900
O1542       O  0.98200551  0.98299810  0.56725445    -0.78400
O1543       O  0.52150954  0.92994490  0.98457663    -0.78200
O1544       O  0.52154680  0.98223050  0.93338644    -0.76900
Zn1545     Zn  0.97491240  0.52620830  0.97576077     1.55700
O1546       O  0.98174256  0.93035147  0.51532146    -0.78300
Cd1547     Cd  0.52971690  0.97463557  0.97703258     1.59700
Cd1548     Cd  0.52848110  0.52748035  0.52435456     1.59600
O1549       O  0.57427638  0.98332252  0.98462170    -0.78200
O1550       O  0.00213141  0.50064684  0.50025097    -1.88700
Cd1551     Cd  0.97431267  0.97482154  0.52328098     1.59900
O1552       O  0.57298899  0.51974908  0.51811902    -0.78200
O1553       O  0.93007457  0.98203497  0.51553620    -0.76900
C1554       C  0.50076496  0.58469251  0.99925092     0.85700
C1555       C  0.00192259  0.50003452  0.92036797     0.85300
O1556       O  0.93106220  0.51833336  0.98259778    -0.75800
C1557       C  0.49845781  0.91589464  0.50011509     0.86200
O1558       O  0.98301726  0.57017325  0.98236294    -0.75900
C1559       C  0.58653189  0.50202606  0.50102471     0.86300
C1560       C  0.49956024  0.50267128  0.58074016     0.86600
O1561       O  0.51827731  0.51988937  0.56784716    -0.78300
O1562       O  0.98223294  0.51701893  0.68441106    -0.75800
C1563       C  0.91543994  0.50100670  0.75159120     0.85200
O1564       O  0.51948143  0.57258159  0.76623948    -0.76900
O1565       O  0.98453588  0.98428228  0.81874092    -0.78400
O1566       O  0.51829283  0.93065028  0.73271368    -0.78200
O1567       O  0.51795397  0.98332468  0.68231971    -0.76900
Zn1568     Zn  0.97390299  0.52581422  0.72665839     1.55700
O1569       O  0.98122000  0.93027964  0.76819014    -0.78300
Cd1570     Cd  0.52690338  0.97523084  0.72573803     1.59700
Cd1571     Cd  0.52637050  0.52816399  0.77324392     1.59600
O1572       O  0.57181393  0.98353744  0.73266297    -0.78200
O1573       O  0.99884005  0.50102327  0.75033278    -1.88700
Cd1574     Cd  0.97475293  0.97510432  0.77532398     1.59900
O1575       O  0.57061328  0.52086895  0.76493322    -0.78200
O1576       O  0.93037441  0.98270185  0.76838539    -0.76900
C1577       C  0.50117724  0.58528798  0.74953594     0.85700
C1578       C  0.99944898  0.49997611  0.67051568     0.85300
O1579       O  0.93020197  0.51803408  0.73411036    -0.75800
C1580       C  0.49994070  0.91659280  0.74943736     0.86200
O1581       O  0.98243934  0.56953696  0.73308729    -0.75900
C1582       C  0.58375452  0.50220041  0.74858558     0.86300
C1583       C  0.50265355  0.99987036  0.83133369     0.86600
O1584       O  0.51865797  0.51939661  0.81709780    -0.78300
N1585       N  0.78486146  0.50641103  0.53422461    -0.33900
N1586       N  0.72090481  0.50403090  0.53480744    -0.54500
N1587       N  0.71832051  0.50270365  0.96752293    -0.33900
N1588       N  0.78165902  0.50114358  0.96619104    -0.54500
C1589       C  0.77995316  0.50198163  0.56391201     0.29600
C1590       C  0.81374483  0.50139617  0.52856125     0.29600
C1591       C  0.68926585  0.49793649  0.97379753     0.29600
C1592       C  0.72239510  0.49737715  0.93783819     0.29600
C1593       C  0.72529451  0.50822674  0.56452706     0.38300
C1594       C  0.69169404  0.50741193  0.52989786     0.38300
C1595       C  0.81106269  0.50509924  0.97087439     0.38300
C1596       C  0.77725929  0.50408024  0.93634474     0.38300
C1597       C  0.80626367  0.49460059  0.57735411    -0.19200
C1598       C  0.82752493  0.49422549  0.55513897    -0.19200
C1599       C  0.67457751  0.48971457  0.94765163    -0.19200
C1600       C  0.69542124  0.48944230  0.92503693    -0.19200
C1601       C  0.69865713  0.51394644  0.57861407    -0.20300
C1602       C  0.67741992  0.51342631  0.55675002    -0.20300
C1603       C  0.82545057  0.51009140  0.94373578    -0.20300
C1604       C  0.80409021  0.50948186  0.92195579    -0.20300
C1605       C  0.75267468  0.50543512  0.57937057    -0.15600
C1606       C  0.82843362  0.50441637  0.50048331    -0.15600
C1607       C  0.74951403  0.50077942  0.92179594    -0.15600
C1608       C  0.67727716  0.50355534  0.50197563    -0.15600
H1609       H  0.80982225  0.48996033  0.60074848     0.17300
H1610       H  0.85059242  0.48931826  0.55828673     0.17300
H1611       H  0.65112353  0.48488641  0.94497460     0.17300
H1612       H  0.69112344  0.48421317  0.90178117     0.17300
H1613       H  0.69486901  0.51796498  0.60219278     0.15600
H1614       H  0.65406083  0.51690836  0.56029051     0.15600
H1615       H  0.84896593  0.51373243  0.93996464     0.15600
H1616       H  0.80791082  0.51260252  0.89825253     0.15600
H1617       H  0.77026586  0.51521783  0.51914665     0.28800
H1618       H  0.73357599  0.51224294  0.98215361     0.28800
N1619       N  0.78097745  0.50376917  0.78376071    -0.33900
N1620       N  0.78201057  0.50418588  0.71730636    -0.54500
N1621       N  0.71851295  0.50571087  0.71702940    -0.33900
N1622       N  0.71739362  0.50235333  0.78352836    -0.54500
C1623       C  0.80963018  0.49776447  0.77802180     0.29600
C1624       C  0.77552648  0.49749198  0.81301748     0.29600
C1625       C  0.72368203  0.50092343  0.68742913     0.29600
C1626       C  0.68944051  0.49963904  0.72229157     0.29600
C1627       C  0.81126727  0.50787987  0.72280439     0.38300
C1628       C  0.77834972  0.50895415  0.68768116     0.38300
C1629       C  0.72135658  0.50558220  0.81345206     0.35700
C1630       C  0.68838116  0.50648383  0.77821003     0.38300
C1631       C  0.82262159  0.48782396  0.80401569    -0.19200
C1632       C  0.80116445  0.48769386  0.82603133    -0.19200
C1633       C  0.69743238  0.49207810  0.67369352    -0.19200
C1634       C  0.67586943  0.49127205  0.69561506    -0.19200
C1635       C  0.82629581  0.51480021  0.69644676    -0.20300
C1636       C  0.80545763  0.51547979  0.67424038    -0.20300
C1637       C  0.69463029  0.51144994  0.82725783    -0.20300
C1638       C  0.67377603  0.51203514  0.80499649    -0.20300
C1639       C  0.82496309  0.50280874  0.75063323    -0.15600
C1640       C  0.74842902  0.50153790  0.82855773    -0.15600
C1641       C  0.67439473  0.50316463  0.74999803    -0.15600
C1642       C  0.75117971  0.50541588  0.67232631    -0.15600
H1643       H  0.84533666  0.48152281  0.80692509     0.17300
H1644       H  0.80414714  0.48114715  0.84902545     0.17300
H1645       H  0.69411691  0.48676705  0.65029930     0.17300
H1646       H  0.65273494  0.48533399  0.69221428     0.17300
H1647       H  0.84990411  0.51851018  0.69340975     0.15600
H1648       H  0.80982716  0.51988325  0.65083726     0.15600
H1649       H  0.69051695  0.51466586  0.85090831     0.15600
H1650       H  0.65041788  0.51574724  0.80824089     0.15600
H1651       H  0.76712691  0.51462932  0.76933163     0.28800
H1652       H  0.73305152  0.51557634  0.73224141     0.28800
C1653       C  0.74882242  0.50053185  0.88882586    -0.10600
C1654       C  0.74841676  0.50077676  0.86151164    -0.12200
C1655       C  0.75252205  0.50532619  0.61223163    -0.10600
C1656       C  0.75175173  0.50532819  0.63947366    -0.12200
C1657       C  0.61554702  0.50235931  0.74874290    -0.10600
C1658       C  0.64225888  0.50268717  0.74939113    -0.12200
C1659       C  0.88370735  0.50162428  0.75131405    -0.10600
C1660       C  0.85703291  0.50210054  0.75103557    -0.12200
C1661       C  0.61835781  0.50246298  0.50150972    -0.10600
C1662       C  0.64509549  0.50298700  0.50195981    -0.12200
C1663       C  0.88714699  0.50223708  0.50008492    -0.10600
C1664       C  0.86050710  0.50339739  0.50027338    -0.12200
C1665       C  0.50218746  0.50092098  0.86206649    -0.10600
C1666       C  0.50267412  0.50028154  0.88861751    -0.12200
C1667       C  0.49826702  0.50330073  0.61205178    -0.10600
C1668       C  0.49772498  0.50294084  0.63856440    -0.12200
C1669       C  0.50057336  0.85824260  0.74939491    -0.10600
C1670       C  0.49997792  0.88488466  0.74923365    -0.12200
C1671       C  0.50135131  0.61706649  0.74903526    -0.10600
C1672       C  0.50160222  0.64378077  0.74906627    -0.12200
C1673       C  0.00255986  0.75000257  0.88854247    -0.10600
C1674       C  0.00252622  0.74981599  0.86119909    -0.12200
C1675       C  0.99742033  0.75120766  0.63831092    -0.10600
C1676       C  0.99718082  0.75141771  0.61097432    -0.12200
C1677       C  0.49769278  0.88409492  0.50022618    -0.10600
C1678       C  0.49715540  0.85737228  0.50030367    -0.12200
C1679       C  0.50052682  0.64314063  0.99898039    -0.10600
C1680       C  0.50025635  0.61643048  0.99879589    -0.12200
loop_ 
_geom_bond_atom_site_label_1 
_geom_bond_atom_site_label_2 
_geom_bond_distance 
_geom_bond_site_symmetry_2 
_ccdc_geom_bond_type 
N1            C6   1.360   1_655  A
N1          C845   1.353   1_655  A
N1           H33   1.037       .  S
N2            C9   1.352       .  A
N2           C10   1.356       .  A
N3            C7   1.360       .  A
N3          C848   1.354       .  A
N3          H874   1.039       .  S
N4           C11   1.358       .  A
N4           C12   1.353       .  A
C5          N841   1.355       .  A
C5           C13   1.389       .  A
C5          C231   1.422   1_554  A
C6           C22   1.420       .  A
C6           C14   1.386       .  A
C7           C15   1.385       .  A
C7           C24   1.421       .  A
C8          N843   1.353   1_455  A
C8           C16   1.390       .  A
C8          C233   1.421       .  A
C9           C21   1.417       .  A
C9           C17   1.389       .  A
C10          C24   1.417       .  A
C10          C18   1.385       .  A
C11          C19   1.384       .  A
C11          C22   1.418   1_655  A
C12          C20   1.389       .  A
C12          C23   1.422       .  A
C13         C854   1.378       .  A
C13          H25   1.082       .  S
C14         C853   1.376       .  A
C14          H26   1.082       .  S
C15         C856   1.380       .  A
C15          H27   1.082       .  S
C16         C855   1.379       .  A
C16          H28   1.082       .  S
C17          C18   1.377       .  A
C17          H29   1.082       .  S
C18          H30   1.082       .  S
C19          C20   1.374       .  A
C19          H31   1.082       .  S
C20          H32   1.082       .  S
C21         C215   1.419       .  A
C21        C1049   1.454       .  S
C22        C1046   1.474       .  S
C23         C218   1.424   1_654  A
C23         C208   1.455       .  S
C24         C203   1.474       .  S
H34         N843   1.037       .  S
N35          C40   1.354       .  A
N35          C39   1.361       .  A
N35          H67   1.038       .  S
N36          C43   1.357       .  A
N36          C44   1.353       .  A
N37          C42   1.360       .  A
N37          C41   1.352       .  A
N37          H68   1.036       .  S
N38          C45   1.352       .  A
N38          C46   1.358       .  A
C39          C47   1.386       .  A
C39          C55   1.422       .  A
C40          C56   1.422       .  A
C40          C48   1.389       .  A
C41          C49   1.390       .  A
C41          C58   1.420       .  A
C42          C57   1.420       .  A
C42          C50   1.386       .  A
C43          C55   1.418       .  A
C43          C51   1.385       .  A
C44          C58   1.421       .  A
C44          C52   1.389       .  A
C45          C53   1.389       .  A
C45          C56   1.419       .  A
C46          C54   1.384       .  A
C46          C57   1.418       .  A
C47          C48   1.378       .  A
C47          H59   1.082       .  S
C48          H60   1.082       .  S
C49          C50   1.376       .  A
C49          H61   1.082       .  S
C50          H62   1.082       .  S
C51          C52   1.376       .  A
C51          H63   1.083       .  S
C52          H64   1.082       .  S
C53          C54   1.374       .  A
C53          H65   1.082       .  S
C54          H66   1.082       .  S
C55         C204   1.475       .  S
C56        C1042   1.454       .  S
C57         C205   1.474       .  S
C58        C1039   1.450       .  S
O69          C85   1.270       .  A
O69         Zn75   1.973       .  S
C70         C403   1.436       .  S
C70          O86   1.273   1_565  A
C70         O713   1.270       .  A
O71         C294   1.271       .  A
O71         Cd78   2.068       .  S
O72        C1350   1.270       .  A
O72         Cd81   2.029       .  S
O73         C297   1.270       .  A
O73         Cd77   2.061       .  S
O74        C1345   1.269       .  A
O74         Cd77   2.026       .  S
Zn75         O86   2.029       .  S
Zn75         O88   2.026       .  S
Zn75        O290   1.942       .  S
O76         C927   1.274       .  A
O76         Cd81   2.080       .  S
Cd77         O79   2.064       .  S
Cd77       O1550   1.991       .  S
Cd78         O82   2.073       .  S
Cd78         O91   2.030       .  S
Cd78        O920   1.992       .  S
O79         C719   1.271       .  A
O80        Zn285   1.941   1_554  S
O80       Cd1547   1.993   1_544  S
O80        Cd918   1.997       .  S
O80        Cd501   1.994   1_545  S
Cd81         O83   2.074       .  S
Cd81        O500   1.995       .  S
O82          C89   1.272       .  A
O83         C700   1.272   1_554  A
C84         C210   1.434       .  S
C84         O281   1.270       .  A
C84         O928   1.272   1_455  A
C85        C1036   1.403       .  S
C85        O1334   1.270   1_545  A
C87         C207   1.440       .  S
C87         O283   1.272   1_654  A
C87         O916   1.273       .  A
O88         C924   1.272       .  A
C89         C191   1.435       .  S
C89         O709   1.271   1_544  A
C90         C197   1.402   1_455  S
C90          O91   1.270   1_565  A
C90        O1332   1.269   1_455  A
O92         C108   1.269   1_545  A
O92         Zn98   1.968       .  S
C93         C189   1.439       .  S
C93         O109   1.271   1_565  A
C93         O526   1.272       .  A
O94         C107   1.271       .  A
O94        Cd101   2.067       .  S
O95         C953   1.269       .  A
O95        Cd104   2.024       .  S
O96         C110   1.273       .  A
O96        Cd100   2.075       .  S
O97        C1368   1.270       .  A
O97        Cd100   2.031       .  S
Zn98        O109   2.022       .  S
Zn98        O111   2.025       .  S
Zn98        O103   1.940       .  S
O99         C950   1.270       .  A
O99        Cd104   2.057       .  S
Cd100       O102   2.077       .  S
Cd100      O1363   1.994       .  S
Cd101       O105   2.071       .  S
Cd101       O114   2.022       .  S
Cd101       O943   1.994   1_545  S
O102        C532   1.273       .  A
O103      Cd1360   1.996   1_545  S
O103       Cd941   1.998       .  S
O103       Cd524   1.994   1_545  S
Cd104       O106   2.068       .  S
Cd104       O523   1.991       .  S
O105        C112   1.272       .  A
O106        C513   1.270       .  A
C107        C201   1.436   1_455  S
C107        O951   1.271   1_455  A
C108       C1038   1.400   1_565  S
C108       O1357   1.269       .  A
C110        C200   1.438       .  S
C110        O939   1.272   1_455  A
O111        C947   1.272       .  A
C112        C187   1.435   1_545  S
C112        O522   1.271   1_545  A
C113        C615   1.403       .  S
C113        O935   1.269   1_455  A
C113        O534   1.269       .  A
O114        C533   1.269       .  A
N115        C120   1.354   1_565  A
N115        C119   1.362   1_565  A
N115        H147   1.036       .  S
N116        C123   1.358   1_545  A
N116        C124   1.353   1_545  A
N117        C122   1.359       .  A
N117        C121   1.352       .  A
N117        H148   1.037   1_545  S
N118        C125   1.352   1_545  A
N118        C126   1.358   1_545  A
C119        C127   1.385       .  A
C119        C135   1.424   1_545  A
C120        C136   1.425   1_544  A
C120        C128   1.390       .  A
C121        C129   1.390       .  A
C121        C348   1.421       .  A
C122        C137   1.420       .  A
C122        C130   1.386       .  A
C123        C135   1.419       .  A
C123        C131   1.385       .  A
C124        C138   1.420   1_565  A
C124        C132   1.389       .  A
C125        C133   1.389       .  A
C125        C346   1.419       .  A
C126        C134   1.385       .  A
C126        C137   1.419   1_565  A
C127        C128   1.378       .  A
C127        H139   1.082       .  S
C128        H140   1.082       .  S
C129        C130   1.378       .  A
C129        H141   1.082       .  S
C130        H142   1.082       .  S
C131        C132   1.374       .  A
C131        H143   1.082       .  S
C132        H144   1.082       .  S
C133        C134   1.375       .  A
C133        H145   1.082       .  S
C134        H146   1.082       .  S
C135        C185   1.478       .  S
C136        C335   1.421       .  A
C136        C194   1.455       .  S
C137        C183   1.474   1_545  S
C138        C331   1.422   1_554  A
C138        C192   1.451       .  S
N149        C154   1.360   1_565  A
N149        C153   1.353   1_565  A
N149        H181   1.037       .  S
N150        C157   1.353       .  A
N150        C158   1.359       .  A
N151        C156   1.353   1_565  A
N151        C155   1.361   1_565  A
N151        H182   1.038       .  S
N152        C159   1.358       .  A
N152        C160   1.351       .  A
C153        C161   1.389       .  A
C153        C169   1.420   1_545  A
C154        C170   1.420   1_545  A
C154        C162   1.386       .  A
C155        C163   1.386       .  A
C155        C172   1.422   1_545  A
C156        C171   1.422   1_545  A
C156        C164   1.390       .  A
C157        C169   1.421       .  A
C157        C165   1.389       .  A
C158        C172   1.419       .  A
C158        C166   1.384       .  A
C159        C167   1.385       .  A
C159        C170   1.418       .  A
C160        C168   1.390       .  A
C160        C171   1.419       .  A
C161        C162   1.377       .  A
C161        H173   1.082       .  S
C162        H174   1.082       .  S
C163        C164   1.378       .  A
C163        H175   1.082       .  S
C164        H176   1.082       .  S
C165        C166   1.375       .  A
C165        H177   1.082       .  S
C166        H178   1.082       .  S
C167        C168   1.376       .  A
C167        H179   1.082       .  S
C168        H180   1.082       .  S
C169        C190   1.454       .  S
C170        C184   1.474       .  S
C171        C188   1.451       .  S
C172        C186   1.478       .  S
C183        C184   1.222       .  T
C185        C186   1.224       .  T
C187        C188   1.206       .  T
C189        C190   1.208       .  T
C191        C192   1.206       .  T
C193        C280   1.439       .  S
C193        C194   1.209       .  T
C195        C533   1.401       .  S
C195        C196   1.186       .  T
C196        C925   1.402       .  S
C197        C198   1.186       .  T
C198        C948   1.402   1_655  S
C199        C898   1.454       .  S
C199        C200   1.208       .  T
C201        C202   1.207       .  T
C202        C896   1.453       .  S
C203        C204   1.222       .  T
C205        C206   1.221       .  T
C206        C862   1.474       .  S
C207        C208   1.209       .  T
C209        C861   1.449       .  S
C209        C210   1.205       .  T
N211        C216   1.359   1_655  A
N211       C1055   1.352   1_655  A
N211        H243   1.038       .  S
N212        C219   1.354       .  A
N212        C220   1.358       .  A
N213       C1058   1.355       .  A
N213        C217   1.361       .  A
N213       H1084   1.037       .  S
N214        C221   1.357       .  A
N214        C222   1.351       .  A
C215       N1051   1.354       .  A
C215        C223   1.389       .  A
C216        C232   1.417   1_455  A
C216        C224   1.385       .  A
C217        C225   1.386       .  A
C217        C234   1.424       .  A
C218       N1053   1.354   1_455  A
C218        C226   1.390       .  A
C219        C231   1.422       .  A
C219        C227   1.389       .  A
C220        C234   1.421       .  A
C220        C228   1.385       .  A
C221        C229   1.384       .  A
C221        C232   1.416       .  A
C222        C230   1.390       .  A
C222        C233   1.418   1_655  A
C223       C1064   1.380       .  A
C223        H235   1.082       .  S
C224       C1063   1.377       .  A
C224        H236   1.082       .  S
C225       C1066   1.379       .  A
C225        H237   1.082       .  S
C226       C1065   1.378       .  A
C226        H238   1.082       .  S
C227        C228   1.376       .  A
C227        H239   1.082       .  S
C228        H240   1.082       .  S
C229        C230   1.375       .  A
C229        H241   1.082       .  S
C230        H242   1.082       .  S
C231       C1259   1.458       .  S
C232       C1256   1.470       .  S
C233        C418   1.448       .  S
C234        C413   1.479       .  S
H244       N1053   1.034       .  S
N245        C250   1.355       .  A
N245        C249   1.362       .  A
N245        H277   1.037       .  S
N246        C253   1.359       .  A
N246        C254   1.354       .  A
N247        C252   1.362       .  A
N247        C251   1.354       .  A
N247        H278   1.034       .  S
N248        C255   1.352       .  A
N248        C256   1.358       .  A
C249        C257   1.385       .  A
C249        C265   1.423       .  A
C250        C266   1.424       .  A
C250        C258   1.389       .  A
C251        C259   1.390       .  A
C251        C268   1.424       .  A
C252        C267   1.425       .  A
C252        C260   1.386       .  A
C253        C265   1.420       .  A
C253        C261   1.385       .  A
C254        C268   1.423       .  A
C254        C262   1.390       .  A
C255        C263   1.390       .  A
C255        C266   1.421       .  A
C256        C264   1.385       .  A
C256        C267   1.421       .  A
C257        C258   1.377       .  A
C257        H269   1.082       .  S
C258        H270   1.082       .  S
C259        C260   1.377       .  A
C259        H271   1.082       .  S
C260        H272   1.082       .  S
C261        C262   1.375       .  A
C261        H273   1.082       .  S
C262        H274   1.082       .  S
C263        C264   1.376       .  A
C263        H275   1.082       .  S
C264        H276   1.083       .  S
C265        C414   1.479       .  S
C266       C1252   1.455       .  S
C267        C415   1.478       .  S
C268       C1249   1.455       .  S
O279        C295   1.270   1_545  A
O279       Zn285   1.975       .  S
C280        O296   1.273   1_565  A
C280        O503   1.271   1_556  A
O281       Cd288   2.061       .  S
O282       C1560   1.269       .  A
O282       Cd291   2.027       .  S
O283       Cd287   2.075       .  S
O284       C1555   1.270       .  A
O284       Cd287   2.023       .  S
Zn285       O296   2.033       .  S
Zn285       O298   2.029       .  S
O286       C1137   1.273       .  A
O286       Cd291   2.078       .  S
Cd287       O289   2.075       .  S
Cd287      O1340   1.995   1_455  S
Cd288       O292   2.069       .  S
Cd288       O301   2.029       .  S
Cd288      O1130   1.994       .  S
O289        C509   1.272   1_556  A
O290      Cd1337   1.994   1_545  S
O290      Cd1128   1.994       .  S
O290       Cd711   1.993   1_545  S
Cd291       O293   2.071       .  S
Cd291       O710   1.994       .  S
O292        C299   1.271       .  A
O293        C490   1.271       .  A
C294        C420   1.433   1_554  S
C294       O1138   1.270   1_454  A
C295       C1246   1.403       .  S
C295       O1544   1.269       .  A
C297        C417   1.432       .  S
C297       O1126   1.272   1_455  A
O298       C1134   1.273   1_556  A
C299        C401   1.435       .  S
C299        O499   1.272   1_545  A
C300        C407   1.404       .  S
C300       O1542   1.269   1_545  A
C300        O301   1.270   1_655  A
O302        C318   1.269       .  A
O302       Zn308   1.974       .  S
C303        C399   1.435       .  S
C303        O319   1.271   1_565  A
C303        O736   1.271       .  A
O304        C317   1.271       .  A
O304       Cd311   2.066       .  S
O305       C1163   1.270       .  A
O305       Cd314   2.030       .  S
O306        C320   1.273   1_455  A
O306       Cd310   2.075       .  S
O307       C1578   1.269   1_455  A
O307       Cd310   2.025       .  S
Zn308       O319   2.020       .  S
Zn308       O321   2.025       .  S
Zn308       O313   1.936       .  S
O309       C1160   1.272       .  A
O309       Cd314   2.074       .  S
Cd310       O312   2.076       .  S
Cd310      O1573   1.993   1_455  S
Cd311       O315   2.067       .  S
Cd311       O324   2.021       .  S
Cd311      O1153   1.993       .  S
O312        C742   1.272       .  A
O313      Cd1570   1.993   1_545  S
O313      Cd1151   1.994       .  S
O313       Cd734   1.998   1_545  S
Cd314       O316   2.067       .  S
Cd314       O733   1.993       .  S
O315        C322   1.271       .  A
O316        C723   1.271       .  A
C317        C411   1.435       .  S
C317       O1161   1.272   1_455  A
C318       C1248   1.403       .  S
C318       O1567   1.269   1_545  A
C320        C410   1.436       .  S
C320       O1149   1.271       .  A
O321       C1157   1.272       .  A
C322        C397   1.436       .  S
C322        O732   1.272   1_545  A
C323        C825   1.400       .  S
C323       O1145   1.269   1_455  A
C323        O744   1.269       .  A
O324        C743   1.269       .  A
N325        C330   1.353   1_565  A
N325        C329   1.360   1_565  A
N325        H357   1.038       .  S
N326        C333   1.357       .  A
N326        C334   1.352       .  A
N327        C332   1.360   1_565  A
N327        C331   1.353   1_565  A
N327        H358   1.035       .  S
N328        C335   1.353       .  A
N328        C336   1.358       .  A
C329        C337   1.386       .  A
C329        C345   1.420   1_545  A
C330        C346   1.421   1_545  A
C330        C338   1.390       .  A
C331        C339   1.390       .  A
C332        C347   1.422       .  A
C332        C340   1.386       .  A
C333        C345   1.418       .  A
C333        C341   1.385       .  A
C334        C348   1.420   1_565  A
C334        C342   1.389       .  A
C335        C343   1.389       .  A
C336        C344   1.385       .  A
C336        C347   1.420   1_565  A
C337        C338   1.377       .  A
C337        H349   1.082       .  S
C338        H350   1.082       .  S
C339        C340   1.377       .  A
C339        H351   1.082       .  S
C340        H352   1.082       .  S
C341        C342   1.375       .  A
C341        H353   1.082       .  S
C342        H354   1.082       .  S
C343        C344   1.375       .  A
C343        H355   1.082       .  S
C344        H356   1.082       .  S
C345        C395   1.473       .  S
C346        C404   1.451       .  S
C347        C393   1.474       .  S
C348        C402   1.450       .  S
N359        C364   1.360       .  A
N359        C363   1.353       .  A
N359        H391   1.036   1_545  S
N360        C367   1.352   1_545  A
N360        C368   1.357   1_545  A
N361        C366   1.353   1_565  A
N361        C365   1.360   1_565  A
N361        H392   1.036       .  S
N362        C369   1.358       .  A
N362        C370   1.353   1_545  A
C363        C371   1.390       .  A
C363        C379   1.421       .  A
C364        C380   1.420       .  A
C364        C372   1.386       .  A
C365        C373   1.386       .  A
C365        C382   1.421   1_545  A
C366        C381   1.421       .  A
C366        C374   1.390       .  A
C367        C379   1.420   1_565  A
C367        C375   1.389       .  A
C368        C382   1.419       .  A
C368        C376   1.385       .  A
C369        C377   1.384   1_545  A
C369        C380   1.419       .  A
C370        C378   1.389       .  A
C370        C381   1.420   1_565  A
C371        C372   1.377       .  A
C371        H383   1.082       .  S
C372        H384   1.082       .  S
C373        C374   1.377       .  A
C373        H385   1.082       .  S
C374        H386   1.082       .  S
C375        C376   1.375       .  A
C375        H387   1.082       .  S
C376        H388   1.082       .  S
C377        C378   1.375       .  A
C377        H389   1.082       .  S
C378        H390   1.082       .  S
C379        C400   1.451       .  S
C380        C394   1.474       .  S
C381        C398   1.452       .  S
C382        C396   1.473       .  S
C393        C394   1.221       .  T
C395        C396   1.221       .  T
C397        C398   1.207       .  T
C399        C400   1.206   1_565  T
C401        C402   1.206       .  T
C403        C404   1.207       .  T
C405        C743   1.401       .  S
C405        C406   1.186       .  T
C406       C1135   1.400       .  S
C407        C408   1.187   1_545  T
C408       C1158   1.404   1_655  S
C409       C1108   1.452       .  S
C409        C410   1.207       .  T
C411        C412   1.206       .  T
C412       C1106   1.451       .  S
C413        C414   1.225       .  T
C415        C416   1.223       .  T
C416       C1072   1.476       .  S
C417        C418   1.205       .  T
C419       C1071   1.449       .  S
C419        C420   1.205       .  T
N421        C426   1.360   1_655  A
N421       C1265   1.354   1_655  A
N421        H453   1.038       .  S
N422        C429   1.352       .  A
N422        C430   1.357       .  A
N423       C1268   1.352       .  A
N423        C427   1.359       .  A
N423       H1294   1.037       .  S
N424        C431   1.358       .  A
N424        C432   1.352       .  A
C425       N1261   1.353       .  A
C425        C433   1.390       .  A
C425        C651   1.422   1_554  A
C426        C442   1.420   1_455  A
C426        C434   1.386       .  A
C427        C435   1.386       .  A
C427        C444   1.420       .  A
C428       N1263   1.354   1_455  A
C428        C653   1.423   1_455  A
C428        C436   1.390       .  A
C429        C441   1.418       .  A
C429        C437   1.389       .  A
C430        C444   1.417       .  A
C430        C438   1.385       .  A
C431        C439   1.385       .  A
C431        C442   1.419       .  A
C432        C440   1.390       .  A
C432        C443   1.421   1_655  A
C433       C1274   1.379       .  A
C433        H445   1.082       .  S
C434       C1273   1.377       .  A
C434        H446   1.082       .  S
C435       C1276   1.378       .  A
C435        H447   1.082       .  S
C436       C1275   1.377       .  A
C436        H448   1.082       .  S
C437        C438   1.375       .  A
C437        H449   1.082       .  S
C438        H450   1.082       .  S
C439        C440   1.376       .  A
C439        H451   1.082       .  S
C440        H452   1.082       .  S
C441        C635   1.420       .  A
C441       C1469   1.449       .  S
C442       C1466   1.475       .  S
C443        C638   1.421   1_554  A
C443        C628   1.452   1_554  S
C444        C623   1.471       .  S
H454       N1263   1.037       .  S
N455        C460   1.353       .  A
N455        C459   1.360       .  A
N455        H487   1.037       .  S
N456        C463   1.358       .  A
N456        C464   1.353       .  A
N457        C462   1.361       .  A
N457        C461   1.355       .  A
N457        H488   1.036       .  S
N458        C465   1.353       .  A
N458        C466   1.358       .  A
C459        C467   1.386       .  A
C459        C475   1.420       .  A
C460        C476   1.420       .  A
C460        C468   1.390       .  A
C461        C469   1.389       .  A
C461        C478   1.422       .  A
C462        C477   1.423       .  A
C462        C470   1.386       .  A
C463        C475   1.418       .  A
C463        C471   1.385       .  A
C464        C478   1.421       .  A
C464        C472   1.389       .  A
C465        C473   1.389       .  A
C465        C476   1.420       .  A
C466        C474   1.385       .  A
C466        C477   1.419       .  A
C467        C468   1.376       .  A
C467        H479   1.082       .  S
C468        H480   1.082       .  S
C469        C470   1.377       .  A
C469        H481   1.082       .  S
C470        H482   1.082       .  S
C471        C472   1.374       .  A
C471        H483   1.082       .  S
C472        H484   1.082       .  S
C473        C474   1.375       .  A
C473        H485   1.082       .  S
C474        H486   1.082       .  S
C475        C624   1.472       .  S
C476       C1462   1.451       .  S
C477        C625   1.476       .  S
C478       C1459   1.455       .  S
O489        C505   1.269       .  A
O489       Zn495   1.970       .  S
C490        C823   1.437       .  S
C490        O506   1.271       .  A
O491        C714   1.270   1_554  A
O491       Cd498   2.062       .  S
O492        C930   1.269   1_565  A
O492       Cd501   2.023       .  S
O493        C717   1.274       .  A
O493       Cd497   2.082       .  S
O494        C925   1.269   1_565  A
O494       Cd497   2.022       .  S
Zn495       O506   2.021       .  S
Zn495       O508   2.018       .  S
Zn495       O710   1.940       .  S
O496       C1347   1.271       .  A
O496       Cd501   2.068       .  S
Cd497       O499   2.070       .  S
Cd497      O1130   1.995   1_565  S
Cd498       O502   2.066       .  S
Cd498       O511   2.019       .  S
Cd498      O1340   1.991   1_454  S
O500       Zn705   1.938   1_554  S
O500      Cd1127   1.994   1_554  S
O500      Cd1338   1.994       .  S
Cd501       O503   2.067       .  S
O502        C509   1.271       .  A
C504        C630   1.438       .  S
C504        O701   1.272       .  A
C504       O1348   1.271   1_455  A
C505       C1456   1.403       .  S
C505        O914   1.270       .  A
C507        C627   1.436       .  S
C507        O703   1.272       .  A
C507       O1336   1.271   1_456  A
O508       C1344   1.271       .  A
C509        C611   1.437       .  S
C510        C617   1.401       .  S
C510        O912   1.270   1_455  A
C510        O511   1.269       .  A
O512        C528   1.269       .  A
O512       Zn518   1.962       .  S
C513        C609   1.437       .  S
C513        O529   1.272       .  A
O514        C527   1.270       .  A
O514       Cd521   2.064       .  S
O515       C1373   1.270   1_565  A
O515       Cd524   2.025       .  S
O516        C530   1.271       .  A
O516       Cd520   2.065       .  S
O517        C948   1.269       .  A
O517       Cd520   2.025       .  S
Zn518       O529   2.025       .  S
Zn518       O531   2.016       .  S
Zn518       O523   1.935       .  S
O519       C1370   1.273       .  A
O519       Cd524   2.077       .  S
Cd520       O522   2.068       .  S
Cd520       O943   1.991       .  S
Cd521       O525   2.071       .  S
Cd521       O534   2.027       .  S
Cd521      O1363   1.991       .  S
O523       Cd940   1.996       .  S
O523      Cd1361   1.992       .  S
Cd524       O526   2.076       .  S
O525        C532   1.272       .  A
C527        C621   1.436       .  S
C527       O1371   1.272   1_455  A
C528       C1458   1.400       .  S
C528        O937   1.270       .  A
C530        C620   1.434   1_455  S
C530       O1359   1.272   1_455  A
O531       C1367   1.271       .  A
C532        C607   1.439       .  S
C533       O1355   1.270   1_445  A
N535        C540   1.354       .  A
N535        C539   1.361       .  A
N535        H567   1.036       .  S
N536        C543   1.357       .  A
N536        C544   1.353       .  A
N537        C542   1.360       .  A
N537        C541   1.353       .  A
N537        H568   1.037       .  S
N538        C545   1.352       .  A
N538        C546   1.358       .  A
C539        C547   1.386       .  A
C539        C555   1.423       .  A
C540        C556   1.424   1_554  A
C540        C548   1.390       .  A
C541        C549   1.389       .  A
C541        C768   1.420       .  A
C542        C557   1.421       .  A
C542        C550   1.386       .  A
C543        C555   1.419       .  A
C543        C551   1.385       .  A
C544        C558   1.420       .  A
C544        C552   1.389       .  A
C545        C553   1.389       .  A
C545        C766   1.419       .  A
C546        C554   1.385       .  A
C546        C557   1.419       .  A
C547        C548   1.378       .  A
C547        H559   1.082       .  S
C548        H560   1.082       .  S
C549        C550   1.378       .  A
C549        H561   1.082       .  S
C550        H562   1.082       .  S
C551        C552   1.375       .  A
C551        H563   1.082       .  S
C552        H564   1.082       .  S
C553        C554   1.375       .  A
C553        H565   1.082       .  S
C554        H566   1.082       .  S
C555        C605   1.475       .  S
C556        C755   1.422       .  A
C556        C614   1.456       .  S
C557        C603   1.475       .  S
C558        C751   1.421   1_554  A
C558        C612   1.453       .  S
N569        C574   1.361       .  A
N569        C573   1.354       .  A
N569        H601   1.037       .  S
N570        C577   1.353       .  A
N570        C578   1.357       .  A
N571        C576   1.355       .  A
N571        C575   1.361       .  A
N571        H602   1.036       .  S
N572        C579   1.358       .  A
N572        C580   1.353       .  A
C573        C581   1.389       .  A
C573        C589   1.421       .  A
C574        C590   1.422       .  A
C574        C582   1.386       .  A
C575        C583   1.385       .  A
C575        C592   1.423       .  A
C576        C591   1.423       .  A
C576        C584   1.390       .  A
C577        C589   1.419       .  A
C577        C585   1.389       .  A
C578        C592   1.418       .  A
C578        C586   1.385       .  A
C579        C587   1.385       .  A
C579        C590   1.420       .  A
C580        C588   1.389       .  A
C580        C591   1.421       .  A
C581        C582   1.377       .  A
C581        H593   1.082       .  S
C582        H594   1.082       .  S
C583        C584   1.377       .  A
C583        H595   1.082       .  S
C584        H596   1.082       .  S
C585        C586   1.374       .  A
C585        H597   1.082       .  S
C586        H598   1.082       .  S
C587        C588   1.375       .  A
C587        H599   1.082       .  S
C588        H600   1.082       .  S
C589        C610   1.453       .  S
C590        C604   1.476       .  S
C591        C608   1.455       .  S
C592        C606   1.475       .  S
C603        C604   1.222       .  T
C605        C606   1.222       .  T
C607        C608   1.209       .  T
C609        C610   1.208       .  T
C611        C612   1.207       .  T
C613        C700   1.440       .  S
C613        C614   1.209       .  T
C615        C616   1.187       .  T
C616       C1345   1.403       .  S
C617        C618   1.186       .  T
C618       C1368   1.402       .  S
C619       C1318   1.450       .  S
C619        C620   1.206       .  T
C621        C622   1.207       .  T
C622       C1316   1.452       .  S
C623        C624   1.220       .  T
C625        C626   1.222       .  T
C626       C1282   1.475       .  S
C627        C628   1.207       .  T
C629       C1281   1.455       .  S
C629        C630   1.208       .  T
N631        C636   1.360   1_655  A
N631       C1475   1.355   1_655  A
N631        H663   1.035       .  S
N632        C639   1.352       .  A
N632        C640   1.358       .  A
N633       C1478   1.353       .  A
N633        C637   1.361       .  A
N633       H1504   1.037       .  S
N634        C641   1.359       .  A
N634        C642   1.355       .  A
C635       N1471   1.353       .  A
C635        C643   1.390       .  A
C636        C652   1.424   1_455  A
C636        C644   1.386       .  A
C637        C645   1.385       .  A
C637        C654   1.421       .  A
C638       N1473   1.353       .  A
C638        C646   1.390       .  A
C639        C651   1.420       .  A
C639        C647   1.389       .  A
C640        C654   1.419       .  A
C640        C648   1.384       .  A
C641        C649   1.385       .  A
C641        C652   1.422       .  A
C642        C650   1.388       .  A
C642        C653   1.423       .  A
C643       C1484   1.377       .  A
C643        H655   1.082       .  S
C644       C1483   1.376       .  A
C644        H656   1.081       .  S
C645       C1486   1.378       .  A
C645        H657   1.082       .  S
C646       C1485   1.378       .  A
C646        H658   1.082       .  S
C647        C648   1.375       .  A
C647        H659   1.082       .  S
C648        H660   1.082       .  S
C649        C650   1.375       .  A
C649        H661   1.082       .  S
C650        H662   1.082       .  S
C651       C1679   1.451       .  S
C652       C1676   1.476       .  S
C653        C838   1.458       .  S
C654        C833   1.479       .  S
H664       N1473   1.038   1_655  S
N665        C670   1.353       .  A
N665        C669   1.362       .  A
N665        H697   1.034       .  S
N666        C673   1.358       .  A
N666        C674   1.352       .  A
N667        C672   1.359       .  A
N667        C671   1.352       .  A
N667        H698   1.037       .  S
N668        C675   1.352       .  A
N668        C676   1.358       .  A
C669        C677   1.386       .  A
C669        C685   1.424       .  A
C670        C686   1.423       .  A
C670        C678   1.390       .  A
C671        C679   1.390       .  A
C671        C688   1.420       .  A
C672        C687   1.418       .  A
C672        C680   1.385       .  A
C673        C685   1.420       .  A
C673        C681   1.385       .  A
C674        C688   1.420       .  A
C674        C682   1.389       .  A
C675        C683   1.390       .  A
C675        C686   1.420       .  A
C676        C684   1.384       .  A
C676        C687   1.416       .  A
C677        C678   1.378       .  A
C677        H689   1.082       .  S
C678        H690   1.082       .  S
C679        C680   1.378       .  A
C679        H691   1.082       .  S
C680        H692   1.083       .  S
C681        C682   1.376       .  A
C681        H693   1.082       .  S
C682        H694   1.082       .  S
C683        C684   1.374       .  A
C683        H695   1.082       .  S
C684        H696   1.082       .  S
C685        C834   1.479       .  S
C686       C1672   1.451       .  S
C687        C835   1.471       .  S
C688       C1669   1.448       .  S
O699        C715   1.270       .  A
O699       Zn705   1.974       .  S
C700        O716   1.273       .  A
O701       Cd708   2.074       .  S
O702       C1140   1.269   1_565  A
O702       Cd711   2.023       .  S
O703       Cd707   2.073       .  S
O704       C1135   1.269   1_565  A
O704       Cd707   2.024       .  S
Zn705       O716   2.028       .  S
Zn705       O718   2.029       .  S
O706       C1557   1.271       .  A
O706       Cd711   2.069       .  S
Cd707       O709   2.066       .  S
Cd707       O920   1.993   1_566  S
Cd708       O712   2.076       .  S
Cd708       O721   2.029       .  S
Cd708      O1550   1.993       .  S
O710       Cd917   1.993       .  S
O710      Cd1548   1.996       .  S
Cd711       O713   2.062       .  S
O712        C719   1.273       .  A
C714        C840   1.436   1_455  S
C714       O1558   1.272   1_455  A
C715       C1666   1.405       .  S
C715       O1124   1.270       .  A
C717        C837   1.442   1_455  S
C717       O1546   1.272   1_455  A
O718       C1554   1.273       .  A
C719        C821   1.436       .  S
C720        C827   1.402   1_455  S
C720       O1122   1.269   1_455  A
C720        O721   1.270       .  A
O722        C738   1.269       .  A
O722       Zn728   1.968       .  S
C723        C819   1.437       .  S
C723        O739   1.272       .  A
O724        C737   1.271       .  A
O724       Cd731   2.066       .  S
O725       C1583   1.270       .  A
O725       Cd734   2.029       .  S
O726        C740   1.271   1_455  A
O726       Cd730   2.069       .  S
O727       C1158   1.270       .  A
O727       Cd730   2.029       .  S
Zn728       O739   2.025       .  S
Zn728       O741   2.025       .  S
Zn728       O733   1.941       .  S
O729       C1580   1.271       .  A
O729       Cd734   2.068       .  S
Cd730       O732   2.073       .  S
Cd730      O1153   1.992   1_565  S
Cd731       O735   2.073       .  S
Cd731       O744   2.026       .  S
Cd731      O1573   1.993   1_455  S
O733      Cd1150   1.996       .  S
O733      Cd1571   1.992       .  S
Cd734       O736   2.068       .  S
O735        C742   1.272       .  A
C737        C831   1.435       .  S
C737       O1581   1.271   1_455  A
C738       C1668   1.401       .  S
C738       O1147   1.270       .  A
C740        C830   1.438       .  S
C740       O1569   1.273       .  A
O741       C1577   1.272       .  A
C742        C817   1.439       .  S
C743       O1565   1.270   1_445  A
N745        C750   1.354       .  A
N745        C749   1.360       .  A
N745        H777   1.037       .  S
N746        C753   1.357       .  A
N746        C754   1.353       .  A
N747        C752   1.360       .  A
N747        C751   1.354       .  A
N747        H778   1.037       .  S
N748        C755   1.354       .  A
N748        C756   1.359       .  A
C749        C757   1.385       .  A
C749        C765   1.420       .  A
C750        C766   1.422       .  A
C750        C758   1.390       .  A
C751        C759   1.390       .  A
C752        C767   1.421       .  A
C752        C760   1.386       .  A
C753        C765   1.418       .  A
C753        C761   1.385       .  A
C754        C768   1.419       .  A
C754        C762   1.389       .  A
C755        C763   1.389       .  A
C756        C764   1.385       .  A
C756        C767   1.421       .  A
C757        C758   1.376       .  A
C757        H769   1.082       .  S
C758        H770   1.082       .  S
C759        C760   1.376       .  A
C759        H771   1.082       .  S
C760        H772   1.082       .  S
C761        C762   1.374       .  A
C761        H773   1.082       .  S
C762        H774   1.082       .  S
C763        C764   1.376       .  A
C763        H775   1.082       .  S
C764        H776   1.081       .  S
C765        C815   1.473       .  S
C766        C824   1.453       .  S
C767        C813   1.477       .  S
C768        C822   1.451       .  S
N779        C784   1.360       .  A
N779        C783   1.354       .  A
N779        H811   1.037       .  S
N780        C787   1.352       .  A
N780        C788   1.357       .  A
N781        C786   1.354       .  A
N781        C785   1.360       .  A
N781        H812   1.036       .  S
N782        C789   1.359       .  A
N782        C790   1.353       .  A
C783        C791   1.389       .  A
C783        C799   1.421       .  A
C784        C800   1.422       .  A
C784        C792   1.386       .  A
C785        C793   1.386       .  A
C785        C802   1.421       .  A
C786        C801   1.422       .  A
C786        C794   1.390       .  A
C787        C799   1.419       .  A
C787        C795   1.389       .  A
C788        C802   1.419       .  A
C788        C796   1.385       .  A
C789        C797   1.385       .  A
C789        C800   1.421       .  A
C790        C798   1.389       .  A
C790        C801   1.422       .  A
C791        C792   1.377       .  A
C791        H803   1.082       .  S
C792        H804   1.082       .  S
C793        C794   1.377       .  A
C793        H805   1.082       .  S
C794        H806   1.082       .  S
C795        C796   1.375       .  A
C795        H807   1.082       .  S
C796        H808   1.082       .  S
C797        C798   1.376       .  A
C797        H809   1.082       .  S
C798        H810   1.082       .  S
C799        C820   1.453       .  S
C800        C814   1.477       .  S
C801        C818   1.455       .  S
C802        C816   1.473       .  S
C813        C814   1.223       .  T
C815        C816   1.221       .  T
C817        C818   1.209       .  T
C819        C820   1.207       .  T
C821        C822   1.207       .  T
C823        C824   1.207       .  T
C825        C826   1.185       .  T
C826       C1555   1.399       .  S
C827        C828   1.186       .  T
C828       C1578   1.401       .  S
C829       C1528   1.454       .  S
C829        C830   1.208       .  T
C831        C832   1.207       .  T
C832       C1526   1.452       .  S
C833        C834   1.225       .  T
C835        C836   1.220       .  T
C836       C1492   1.471       .  S
C837        C838   1.211       .  T
C839       C1491   1.451       .  S
C839        C840   1.207       .  T
N841        C846   1.361       .  A
N841        H873   1.038       .  S
N842        C849   1.352   1_455  A
N842        C850   1.358   1_455  A
N843        C847   1.360   1_655  A
N844        C851   1.357       .  A
N844        C852   1.352       .  A
C845        C853   1.390       .  A
C845       C1071   1.420   1_554  A
C846        C862   1.422       .  A
C846        C854   1.385       .  A
C847        C855   1.386       .  A
C847        C864   1.421       .  A
C848       C1073   1.422       .  A
C848        C856   1.389       .  A
C849        C861   1.419   1_655  A
C849        C857   1.389       .  A
C850        C864   1.419   1_655  A
C850        C858   1.384       .  A
C851        C859   1.385       .  A
C851        C862   1.417       .  A
C852        C860   1.389       .  A
C852        C863   1.419       .  A
C853        H865   1.082       .  S
C854        H866   1.082       .  S
C855        H867   1.082       .  S
C856        H868   1.082       .  S
C857        C858   1.375       .  A
C857        H869   1.082       .  S
C858        H870   1.081       .  S
C859        C860   1.375       .  A
C859        H871   1.082       .  S
C860        H872   1.082       .  S
C861       C1055   1.419       .  A
C863       C1058   1.424   1_554  A
C863       C1048   1.455       .  S
C864       C1043   1.477   1_455  S
N875        C880   1.354       .  A
N875        C879   1.362       .  A
N875        H907   1.035       .  S
N876        C883   1.358       .  A
N876        C884   1.354       .  A
N877        C882   1.360   1_655  A
N877        C881   1.353   1_655  A
N877        H908   1.034       .  S
N878        C885   1.352       .  A
N878        C886   1.357       .  A
C879        C887   1.386   1_655  A
C879        C895   1.425       .  A
C880        C896   1.424       .  A
C880        C888   1.390   1_655  A
C881        C889   1.390       .  A
C881        C898   1.423       .  A
C882        C897   1.423   1_455  A
C882        C890   1.386       .  A
C883        C895   1.421       .  A
C883        C891   1.385       .  A
C884        C898   1.423   1_655  A
C884        C892   1.389       .  A
C885        C893   1.390       .  A
C885        C896   1.421       .  A
C886        C894   1.385       .  A
C886        C897   1.420       .  A
C887        C888   1.377       .  A
C887        H899   1.081       .  S
C888        H900   1.082       .  S
C889        C890   1.377       .  A
C889        H901   1.082       .  S
C890        H902   1.082       .  S
C891        C892   1.375       .  A
C891        H903   1.082       .  S
C892        H904   1.082       .  S
C893        C894   1.374       .  A
C893        H905   1.082       .  S
C894        H906   1.082       .  S
C895       C1044   1.478       .  S
C897       C1045   1.474       .  S
O909        C925   1.270   1_655  A
O909       Zn915   1.976       .  S
C910       C1243   1.439       .  S
C910        O926   1.273       .  A
C910       O1553   1.271   1_545  A
O911       C1134   1.273       .  A
O911       Cd918   2.081       .  S
O912       Cd921   2.030       .  S
O913       C1137   1.273       .  A
O913       Cd917   2.080       .  S
O914       Cd917   2.030       .  S
Zn915       O926   2.032       .  S
Zn915       O928   2.024       .  S
Zn915      O1130   1.943   1_655  S
O916       Cd921   2.079       .  S
Cd917       O919   2.080       .  S
Cd918       O922   2.078       .  S
Cd918       O931   2.028       .  S
O919       C1559   1.273       .  A
O920      Zn1125   1.936   1_454  S
O920      Cd1341   1.990   1_445  S
Cd921       O923   2.071       .  S
Cd921      O1340   1.994   1_554  S
O922        C929   1.273       .  A
O923       C1540   1.272   1_554  A
C924       C1050   1.439       .  S
C924       O1121   1.272       .  A
C927       C1047   1.439       .  S
C927       O1123   1.272   1_554  A
C929       C1031   1.437       .  S
C929       O1549   1.272   1_544  A
C930       C1037   1.400       .  S
C930        O931   1.270       .  A
O932        C948   1.269   1_645  A
O932       Zn938   1.969       .  S
C933       C1029   1.438       .  S
C933        O949   1.271   1_565  A
C933       O1366   1.272       .  A
O934        C947   1.272       .  A
O934       Cd941   2.073       .  S
O935       Cd944   2.028       .  S
O936        C950   1.273       .  A
O936       Cd940   2.078       .  S
O937       Cd940   2.026       .  S
Zn938       O949   2.016       .  S
Zn938       O951   2.021       .  S
Zn938       O943   1.936   1_645  S
O939       Cd944   2.072       .  S
Cd940       O942   2.073       .  S
Cd941       O945   2.080       .  S
Cd941       O954   2.032       .  S
O942       C1372   1.272       .  A
O943      Cd1364   1.992   1_455  S
Cd944       O946   2.067       .  S
Cd944      O1363   1.994   1_655  S
O945        C952   1.273       .  A
O946       C1353   1.271       .  A
C947       C1041   1.438       .  S
C950       C1040   1.433       .  S
C952       C1027   1.440       .  S
C952       O1362   1.272   1_545  A
C953       C1455   1.402       .  S
C953       O1374   1.270       .  A
O954       C1373   1.270       .  A
N955        C960   1.353   1_565  A
N955        C959   1.361   1_565  A
N955        H987   1.034       .  S
N956        C963   1.359   1_545  A
N956        C964   1.354   1_545  A
N957        C962   1.361   1_565  A
N957        C961   1.354   1_565  A
N957        H988   1.032       .  S
N958        C965   1.353       .  A
N958        C966   1.358       .  A
C959        C967   1.386       .  A
C959        C975   1.423   1_545  A
C960        C976   1.424   1_544  A
C960        C968   1.390       .  A
C961        C969   1.390       .  A
C961       C1188   1.422   1_545  A
C962        C977   1.422   1_545  A
C962        C970   1.386       .  A
C963        C975   1.420       .  A
C963        C971   1.384       .  A
C964        C978   1.422   1_565  A
C964        C972   1.389       .  A
C965        C973   1.389       .  A
C965       C1186   1.421       .  A
C966        C974   1.385       .  A
C966        C977   1.420       .  A
C967        C968   1.377       .  A
C967        H979   1.082       .  S
C968        H980   1.082       .  S
C969        C970   1.376       .  A
C969        H981   1.082       .  S
C970        H982   1.082       .  S
C971        C972   1.373       .  A
C971        H983   1.082       .  S
C972        H984   1.082       .  S
C973        C974   1.374       .  A
C973        H985   1.082       .  S
C974        H986   1.082       .  S
C975       C1025   1.478       .  S
C976       C1175   1.422       .  A
C976       C1034   1.451       .  S
C977       C1023   1.475       .  S
C978       C1171   1.422   1_554  A
C978       C1032   1.452       .  S
N989        C994   1.359   1_565  A
N989        C993   1.353   1_565  A
N989       H1021   1.038       .  S
N990        C997   1.353       .  A
N990        C998   1.358       .  A
N991        C996   1.354   1_565  A
N991        C995   1.361   1_565  A
N991       H1022   1.038       .  S
N992        C999   1.358   1_545  A
N992       C1000   1.352   1_545  A
C993       C1001   1.389       .  A
C993       C1009   1.419   1_545  A
C994       C1010   1.419   1_545  A
C994       C1002   1.386       .  A
C995       C1003   1.385       .  A
C995       C1012   1.421   1_545  A
C996       C1011   1.421       .  A
C996       C1004   1.389       .  A
C997       C1009   1.419       .  A
C997       C1005   1.389       .  A
C998       C1012   1.418       .  A
C998       C1006   1.384       .  A
C999       C1007   1.385       .  A
C999       C1010   1.418       .  A
C1000      C1008   1.389       .  A
C1000      C1011   1.420   1_565  A
C1001      C1002   1.377       .  A
C1001      H1013   1.082       .  S
C1002      H1014   1.082       .  S
C1003      C1004   1.378       .  A
C1003      H1015   1.082       .  S
C1004      H1016   1.082       .  S
C1005      C1006   1.376       .  A
C1005      H1017   1.082       .  S
C1006      H1018   1.082       .  S
C1007      C1008   1.376       .  A
C1007      H1019   1.082       .  S
C1008      H1020   1.082       .  S
C1009      C1030   1.453       .  S
C1010      C1024   1.474       .  S
C1011      C1028   1.455       .  S
C1012      C1026   1.477       .  S
C1023      C1024   1.221       .  T
C1025      C1026   1.223       .  T
C1027      C1028   1.209       .  T
C1029      C1030   1.208       .  T
C1031      C1032   1.207       .  T
C1033      C1120   1.434       .  S
C1033      C1034   1.206       .  T
C1035      C1373   1.403       .  S
C1035      C1036   1.187       .  T
C1037      C1038   1.185       .  T
C1039      C1040   1.205       .  T
C1041      C1042   1.208       .  T
C1043      C1044   1.224       .  T
C1045      C1046   1.221   1_655  T
C1047      C1048   1.209       .  T
C1049      C1050   1.209       .  T
N1051      C1056   1.360       .  A
N1051      H1083   1.039       .  S
N1052      C1059   1.352   1_455  A
N1052      C1060   1.357   1_455  A
N1053      C1057   1.361   1_655  A
N1054      C1061   1.357       .  A
N1054      C1062   1.352       .  A
C1055      C1063   1.390       .  A
C1056      C1072   1.421       .  A
C1056      C1064   1.386       .  A
C1057      C1065   1.386       .  A
C1057      C1074   1.424   1_455  A
C1058      C1066   1.389       .  A
C1059      C1071   1.418   1_655  A
C1059      C1067   1.389       .  A
C1060      C1074   1.419       .  A
C1060      C1068   1.385       .  A
C1061      C1069   1.385       .  A
C1061      C1072   1.418       .  A
C1062      C1070   1.389       .  A
C1062      C1073   1.419       .  A
C1063      H1075   1.082       .  S
C1064      H1076   1.082       .  S
C1065      H1077   1.082       .  S
C1066      H1078   1.082       .  S
C1067      C1068   1.374       .  A
C1067      H1079   1.082       .  S
C1068      H1080   1.082       .  S
C1069      C1070   1.377       .  A
C1069      H1081   1.082       .  S
C1070      H1082   1.082       .  S
C1073      C1258   1.457       .  S
C1074      C1253   1.474       .  S
N1085      C1090   1.353   1_655  A
N1085      C1089   1.360   1_655  A
N1085      H1117   1.036       .  S
N1086      C1093   1.357       .  A
N1086      C1094   1.353       .  A
N1087      C1092   1.359       .  A
N1087      C1091   1.353       .  A
N1087      H1118   1.036       .  S
N1088      C1095   1.352       .  A
N1088      C1096   1.357       .  A
C1089      C1097   1.386       .  A
C1089      C1105   1.423   1_455  A
C1090      C1106   1.423       .  A
C1090      C1098   1.390       .  A
C1091      C1099   1.390   1_655  A
C1091      C1108   1.421       .  A
C1092      C1107   1.420       .  A
C1092      C1100   1.386   1_655  A
C1093      C1105   1.419       .  A
C1093      C1101   1.385       .  A
C1094      C1108   1.420       .  A
C1094      C1102   1.388       .  A
C1095      C1103   1.389       .  A
C1095      C1106   1.420   1_655  A
C1096      C1104   1.385       .  A
C1096      C1107   1.418       .  A
C1097      C1098   1.378       .  A
C1097      H1109   1.082       .  S
C1098      H1110   1.082       .  S
C1099      C1100   1.376       .  A
C1099      H1111   1.082       .  S
C1100      H1112   1.082       .  S
C1101      C1102   1.375       .  A
C1101      H1113   1.082       .  S
C1102      H1114   1.082       .  S
C1103      C1104   1.374       .  A
C1103      H1115   1.082       .  S
C1104      H1116   1.082       .  S
C1105      C1254   1.474       .  S
C1107      C1255   1.471       .  S
O1119      C1135   1.268   1_655  A
O1119     Zn1125   1.963       .  S
C1120      O1136   1.271   1_565  A
C1120      O1343   1.270   1_556  A
O1121     Cd1128   2.073       .  S
O1122     Cd1131   2.024       .  S
O1123     Cd1127   2.069       .  S
O1124     Cd1127   2.032       .  S
Zn1125     O1136   2.021       .  S
Zn1125     O1138   2.013       .  S
O1126     Cd1131   2.069       .  S
Cd1127     O1129   2.072       .  S
Cd1128     O1132   2.074       .  S
Cd1128     O1141   2.031       .  S
O1129      C1349   1.272   1_556  A
O1130     Cd1551   1.992   1_445  S
Cd1131     O1133   2.065       .  S
Cd1131     O1550   1.995   1_655  S
O1132      C1139   1.272       .  A
O1133      C1330   1.271       .  A
C1134      C1260   1.442       .  S
C1137      C1257   1.442       .  S
C1139      C1241   1.437       .  S
C1139      O1339   1.272   1_545  A
C1140      C1247   1.403       .  S
C1140      O1141   1.270       .  A
O1142      C1158   1.268   1_645  A
O1142     Zn1148   1.966       .  S
C1143      C1239   1.436       .  S
C1143      O1159   1.271       .  A
C1143      O1576   1.272   1_545  A
O1144      C1157   1.272       .  A
O1144     Cd1151   2.075       .  S
O1145     Cd1154   2.024       .  S
O1146      C1160   1.272       .  A
O1146     Cd1150   2.077       .  S
O1147     Cd1150   2.025       .  S
Zn1148     O1159   2.019       .  S
Zn1148     O1161   2.021       .  S
Zn1148     O1153   1.939   1_655  S
O1149     Cd1154   2.068       .  S
Cd1150     O1152   2.076       .  S
Cd1151     O1155   2.074       .  S
Cd1151     O1164   2.030       .  S
O1152      C1582   1.273       .  A
O1153     Cd1574   1.994   1_445  S
Cd1154     O1156   2.066       .  S
Cd1154     O1573   1.992       .  S
O1155      C1162   1.272       .  A
O1156      C1563   1.271       .  A
C1157      C1251   1.439       .  S
C1160      C1250   1.439       .  S
C1162      C1237   1.440       .  S
C1162      O1572   1.273   1_545  A
C1163      C1665   1.405       .  S
C1163      O1584   1.270       .  A
O1164      C1583   1.270   1_545  A
N1165      C1170   1.355   1_565  A
N1165      C1169   1.362   1_565  A
N1165      H1197   1.035       .  S
N1166      C1173   1.358       .  A
N1166      C1174   1.354       .  A
N1167      C1172   1.360   1_565  A
N1167      C1171   1.352   1_565  A
N1167      H1198   1.033       .  S
N1168      C1175   1.352       .  A
N1168      C1176   1.358       .  A
C1169      C1177   1.386       .  A
C1169      C1185   1.423   1_545  A
C1170      C1186   1.423   1_545  A
C1170      C1178   1.389       .  A
C1171      C1179   1.390       .  A
C1172      C1187   1.422       .  A
C1172      C1180   1.386       .  A
C1173      C1185   1.420       .  A
C1173      C1181   1.385       .  A
C1174      C1188   1.422       .  A
C1174      C1182   1.389       .  A
C1175      C1183   1.389       .  A
C1176      C1184   1.385       .  A
C1176      C1187   1.421   1_565  A
C1177      C1178   1.377       .  A
C1177      H1189   1.082       .  S
C1178      H1190   1.082       .  S
C1179      C1180   1.377       .  A
C1179      H1191   1.082       .  S
C1180      H1192   1.082       .  S
C1181      C1182   1.374       .  A
C1181      H1193   1.082       .  S
C1182      H1194   1.082       .  S
C1183      C1184   1.374       .  A
C1183      H1195   1.082       .  S
C1184      H1196   1.081       .  S
C1185      C1235   1.476   1_565  S
C1186      C1244   1.455       .  S
C1187      C1233   1.475       .  S
C1188      C1242   1.454       .  S
N1199      C1204   1.359   1_565  A
N1199      C1203   1.353   1_565  A
N1199      H1231   1.037       .  S
N1200      C1207   1.352   1_545  A
N1200      C1208   1.357   1_545  A
N1201      C1206   1.354       .  A
N1201      C1205   1.360       .  A
N1201      H1232   1.038   1_545  S
N1202      C1209   1.358   1_545  A
N1202      C1210   1.353   1_545  A
C1203      C1211   1.389       .  A
C1203      C1219   1.420       .  A
C1204      C1220   1.420   1_545  A
C1204      C1212   1.386       .  A
C1205      C1213   1.386       .  A
C1205      C1222   1.421       .  A
C1206      C1221   1.421       .  A
C1206      C1214   1.389       .  A
C1207      C1219   1.418   1_565  A
C1207      C1215   1.389       .  A
C1208      C1222   1.418   1_565  A
C1208      C1216   1.385       .  A
C1209      C1217   1.385       .  A
C1209      C1220   1.420       .  A
C1210      C1218   1.389       .  A
C1210      C1221   1.421   1_565  A
C1211      C1212   1.376       .  A
C1211      H1223   1.082       .  S
C1212      H1224   1.081       .  S
C1213      C1214   1.378       .  A
C1213      H1225   1.082       .  S
C1214      H1226   1.082       .  S
C1215      C1216   1.375       .  A
C1215      H1227   1.082       .  S
C1216      H1228   1.082       .  S
C1217      C1218   1.377       .  A
C1217      H1229   1.082       .  S
C1218      H1230   1.082       .  S
C1219      C1240   1.451       .  S
C1220      C1234   1.474       .  S
C1221      C1238   1.455       .  S
C1222      C1236   1.475       .  S
C1233      C1234   1.221   1_545  T
C1235      C1236   1.222       .  T
C1237      C1238   1.209       .  T
C1239      C1240   1.207       .  T
C1241      C1242   1.208   1_545  T
C1243      C1244   1.209   1_545  T
C1245      C1583   1.403       .  S
C1245      C1246   1.187       .  T
C1247      C1248   1.187       .  T
C1249      C1250   1.209       .  T
C1251      C1252   1.209       .  T
C1253      C1254   1.221       .  T
C1255      C1256   1.219       .  T
C1257      C1258   1.210       .  T
C1259      C1260   1.211   1_556  T
N1261      C1266   1.361       .  A
N1261      H1293   1.037       .  S
N1262      C1269   1.353       .  A
N1262      C1270   1.357       .  A
N1263      C1267   1.359   1_655  A
N1264      C1271   1.358       .  A
N1264      C1272   1.352       .  A
C1265      C1273   1.389       .  A
C1265      C1491   1.421   1_454  A
C1266      C1282   1.421       .  A
C1266      C1274   1.386       .  A
C1267      C1275   1.386       .  A
C1267      C1284   1.422   1_455  A
C1268      C1493   1.420       .  A
C1268      C1276   1.390       .  A
C1269      C1281   1.421   1_655  A
C1269      C1277   1.389       .  A
C1270      C1284   1.419       .  A
C1270      C1278   1.385       .  A
C1271      C1279   1.385       .  A
C1271      C1282   1.418       .  A
C1272      C1280   1.389       .  A
C1272      C1283   1.419       .  A
C1273      H1285   1.082       .  S
C1274      H1286   1.082       .  S
C1275      H1287   1.082       .  S
C1276      H1288   1.082       .  S
C1277      C1278   1.374       .  A
C1277      H1289   1.082       .  S
C1278      H1290   1.082       .  S
C1279      C1280   1.376       .  A
C1279      H1291   1.082       .  S
C1280      H1292   1.082       .  S
C1281      C1475   1.423       .  A
C1283      C1478   1.421   1_554  A
C1283      C1468   1.451       .  S
C1284      C1463   1.472       .  S
N1295      C1300   1.353   1_655  A
N1295      C1299   1.360   1_655  A
N1295      H1327   1.036       .  S
N1296      C1303   1.357       .  A
N1296      C1304   1.352       .  A
N1297      C1302   1.360   1_655  A
N1297      C1301   1.353   1_655  A
N1297      H1328   1.036       .  S
N1298      C1305   1.353       .  A
N1298      C1306   1.358       .  A
C1299      C1307   1.386       .  A
C1299      C1315   1.421   1_455  A
C1300      C1316   1.421       .  A
C1300      C1308   1.390       .  A
C1301      C1309   1.390       .  A
C1301      C1318   1.421   1_455  A
C1302      C1317   1.421   1_455  A
C1302      C1310   1.386       .  A
C1303      C1315   1.418       .  A
C1303      C1311   1.385       .  A
C1304      C1318   1.419       .  A
C1304      C1312   1.389       .  A
C1305      C1313   1.389       .  A
C1305      C1316   1.421   1_655  A
C1306      C1314   1.385       .  A
C1306      C1317   1.420       .  A
C1307      C1308   1.378       .  A
C1307      H1319   1.082       .  S
C1308      H1320   1.082       .  S
C1309      C1310   1.377       .  A
C1309      H1321   1.082       .  S
C1310      H1322   1.082       .  S
C1311      C1312   1.374       .  A
C1311      H1323   1.082       .  S
C1312      H1324   1.082       .  S
C1313      C1314   1.375       .  A
C1313      H1325   1.082       .  S
C1314      H1326   1.082       .  S
C1315      C1464   1.472       .  S
C1317      C1465   1.475       .  S
O1329      C1345   1.269   1_655  A
O1329     Zn1335   1.971       .  S
C1330      C1663   1.435       .  S
C1330      O1346   1.271       .  A
O1331      C1554   1.270   1_554  A
O1331     Cd1338   2.058       .  S
O1332     Cd1341   2.024       .  S
O1333      C1557   1.272       .  A
O1333     Cd1337   2.073       .  S
O1334     Cd1337   2.026       .  S
Zn1335     O1346   2.019       .  S
Zn1335     O1348   2.019       .  S
Zn1335     O1550   1.934   1_655  S
O1336     Cd1341   2.068       .  S
Cd1337     O1339   2.071       .  S
Cd1338     O1342   2.066       .  S
Cd1338     O1351   2.021       .  S
O1340     Zn1545   1.938       .  S
Cd1341     O1343   2.060       .  S
O1342      C1349   1.271       .  A
C1344      C1470   1.434       .  S
C1344      O1541   1.270       .  A
C1347      C1467   1.435       .  S
C1347      O1543   1.271   1_554  A
C1349      C1451   1.434       .  S
C1350      C1457   1.400       .  S
C1350      O1351   1.268       .  A
O1352      C1368   1.269   1_655  A
O1352     Zn1358   1.968       .  S
C1353      C1449   1.434       .  S
C1353      O1369   1.271       .  A
O1354      C1367   1.271       .  A
O1354     Cd1361   2.069       .  S
O1355     Cd1364   2.027       .  S
O1356      C1370   1.272       .  A
O1356     Cd1360   2.075       .  S
O1357     Cd1360   2.023       .  S
Zn1358     O1369   2.019       .  S
Zn1358     O1371   2.025       .  S
Zn1358     O1363   1.941   1_655  S
O1359     Cd1364   2.072       .  S
Cd1360     O1362   2.075       .  S
Cd1361     O1365   2.071       .  S
Cd1361     O1374   2.027       .  S
Cd1364     O1366   2.077       .  S
O1365      C1372   1.271       .  A
C1367      C1461   1.435       .  S
C1370      C1460   1.439       .  S
C1372      C1447   1.436       .  S
N1375      C1380   1.353       .  A
N1375      C1379   1.362       .  A
N1375      H1407   1.036       .  S
N1376      C1383   1.358       .  A
N1376      C1384   1.352       .  A
N1377      C1382   1.360       .  A
N1377      C1381   1.354       .  A
N1377      H1408   1.035       .  S
N1378      C1385   1.352       .  A
N1378      C1386   1.357       .  A
C1379      C1387   1.385       .  A
C1379      C1395   1.423       .  A
C1380      C1396   1.423   1_554  A
C1380      C1388   1.390       .  A
C1381      C1389   1.389       .  A
C1381      C1608   1.421       .  A
C1382      C1397   1.423       .  A
C1382      C1390   1.386       .  A
C1383      C1395   1.419       .  A
C1383      C1391   1.384       .  A
C1384      C1398   1.421       .  A
C1384      C1392   1.389       .  A
C1385      C1393   1.389       .  A
C1385      C1606   1.419       .  A
C1386      C1394   1.385       .  A
C1386      C1397   1.419       .  A
C1387      C1388   1.378       .  A
C1387      H1399   1.081       .  S
C1388      H1400   1.082       .  S
C1389      C1390   1.376       .  A
C1389      H1401   1.082       .  S
C1390      H1402   1.081       .  S
C1391      C1392   1.376       .  A
C1391      H1403   1.082       .  S
C1392      H1404   1.082       .  S
C1393      C1394   1.375       .  A
C1393      H1405   1.082       .  S
C1394      H1406   1.082       .  S
C1395      C1445   1.479       .  S
C1396      C1595   1.421       .  A
C1396      C1454   1.452       .  S
C1397      C1443   1.475       .  S
C1398      C1591   1.421   1_554  A
C1398      C1452   1.450       .  S
N1409      C1414   1.361       .  A
N1409      C1413   1.353       .  A
N1409      H1441   1.034       .  S
N1410      C1417   1.352       .  A
N1410      C1418   1.358       .  A
N1411      C1416   1.353       .  A
N1411      C1415   1.362       .  A
N1411      H1442   1.035       .  S
N1412      C1419   1.358       .  A
N1412      C1420   1.353       .  A
C1413      C1421   1.391       .  A
C1413      C1429   1.423       .  A
C1414      C1430   1.422       .  A
C1414      C1422   1.386       .  A
C1415      C1423   1.385       .  A
C1415      C1432   1.424       .  A
C1416      C1431   1.423       .  A
C1416      C1424   1.390       .  A
C1417      C1429   1.422       .  A
C1417      C1425   1.390       .  A
C1418      C1432   1.420       .  A
C1418      C1426   1.384       .  A
C1419      C1427   1.385       .  A
C1419      C1430   1.420       .  A
C1420      C1428   1.389       .  A
C1420      C1431   1.422       .  A
C1421      C1422   1.378       .  A
C1421      H1433   1.082       .  S
C1422      H1434   1.082       .  S
C1423      C1424   1.377       .  A
C1423      H1435   1.082       .  S
C1424      H1436   1.082       .  S
C1425      C1426   1.374       .  A
C1425      H1437   1.082       .  S
C1426      H1438   1.081       .  S
C1427      C1428   1.375       .  A
C1427      H1439   1.082       .  S
C1428      H1440   1.082       .  S
C1429      C1450   1.450       .  S
C1430      C1444   1.475       .  S
C1431      C1448   1.452       .  S
C1432      C1446   1.480       .  S
C1443      C1444   1.222       .  T
C1445      C1446   1.225       .  T
C1447      C1448   1.207       .  T
C1449      C1450   1.205       .  T
C1451      C1452   1.206       .  T
C1453      C1540   1.437       .  S
C1453      C1454   1.207       .  T
C1455      C1456   1.187       .  T
C1457      C1458   1.185       .  T
C1459      C1460   1.209       .  T
C1461      C1462   1.206       .  T
C1463      C1464   1.220       .  T
C1465      C1466   1.222       .  T
C1467      C1468   1.206       .  T
C1469      C1470   1.205       .  T
N1471      C1476   1.359       .  A
N1471      H1503   1.036       .  S
N1472      C1479   1.351   1_455  A
N1472      C1480   1.357   1_455  A
N1473      C1477   1.361       .  A
N1474      C1481   1.357       .  A
N1474      C1482   1.352       .  A
C1475      C1483   1.389       .  A
C1476      C1492   1.420       .  A
C1476      C1484   1.386       .  A
C1477      C1485   1.385       .  A
C1477      C1494   1.421       .  A
C1478      C1486   1.390       .  A
C1479      C1491   1.417       .  A
C1479      C1487   1.389       .  A
C1480      C1494   1.416   1_655  A
C1480      C1488   1.384       .  A
C1481      C1489   1.385       .  A
C1481      C1492   1.417       .  A
C1482      C1490   1.389       .  A
C1482      C1493   1.419       .  A
C1483      H1495   1.082       .  S
C1484      H1496   1.082       .  S
C1485      H1497   1.082       .  S
C1486      H1498   1.082       .  S
C1487      C1488   1.375       .  A
C1487      H1499   1.082       .  S
C1488      H1500   1.082       .  S
C1489      C1490   1.375       .  A
C1489      H1501   1.082       .  S
C1490      H1502   1.082       .  S
C1493      C1678   1.451       .  S
C1494      C1673   1.476       .  S
N1505      C1510   1.353   1_655  A
N1505      C1509   1.361   1_655  A
N1505      H1537   1.035       .  S
N1506      C1513   1.358   1_455  A
N1506      C1514   1.353   1_455  A
N1507      C1512   1.361   1_655  A
N1507      C1511   1.354   1_655  A
N1507      H1538   1.036       .  S
N1508      C1515   1.353       .  A
N1508      C1516   1.358       .  A
C1509      C1517   1.386       .  A
C1509      C1525   1.423       .  A
C1510      C1526   1.423       .  A
C1510      C1518   1.390       .  A
C1511      C1519   1.390       .  A
C1511      C1528   1.423   1_455  A
C1512      C1527   1.423   1_455  A
C1512      C1520   1.386       .  A
C1513      C1525   1.420   1_655  A
C1513      C1521   1.385       .  A
C1514      C1528   1.421       .  A
C1514      C1522   1.389       .  A
C1515      C1523   1.389       .  A
C1515      C1526   1.421   1_655  A
C1516      C1524   1.385       .  A
C1516      C1527   1.420       .  A
C1517      C1518   1.378       .  A
C1517      H1529   1.082       .  S
C1518      H1530   1.082       .  S
C1519      C1520   1.378       .  A
C1519      H1531   1.082       .  S
C1520      H1532   1.082       .  S
C1521      C1522   1.374       .  A
C1521      H1533   1.082       .  S
C1522      H1534   1.082       .  S
C1523      C1524   1.374       .  A
C1523      H1535   1.082       .  S
C1524      H1536   1.081       .  S
C1525      C1674   1.476       .  S
C1527      C1675   1.476       .  S
O1539      C1555   1.269   1_655  A
O1539     Zn1545   1.964       .  S
C1540      O1556   1.272       .  A
O1541     Cd1548   2.064       .  S
O1542     Cd1551   2.029       .  S
O1543     Cd1547   2.071       .  S
O1544     Cd1547   2.022       .  S
Zn1545     O1556   2.023       .  S
Zn1545     O1558   2.028       .  S
O1546     Cd1551   2.075       .  S
Cd1547     O1549   2.069       .  S
Cd1548     O1552   2.068       .  S
Cd1548     O1561   2.025       .  S
Cd1551     O1553   2.067       .  S
O1552      C1559   1.271       .  A
C1554      C1680   1.435       .  S
C1557      C1677   1.436       .  S
C1559      C1661   1.438       .  S
C1560      C1667   1.401       .  S
C1560      O1561   1.269       .  A
O1562      C1578   1.268       .  A
O1562     Zn1568   1.964       .  S
C1563      C1659   1.435       .  S
C1563      O1579   1.271       .  A
O1564      C1577   1.270       .  A
O1564     Cd1571   2.066       .  S
O1565     Cd1574   2.031       .  S
O1566      C1580   1.271       .  A
O1566     Cd1570   2.065       .  S
O1567     Cd1570   2.024       .  S
Zn1568     O1579   2.021       .  S
Zn1568     O1581   2.020       .  S
Zn1568     O1573   1.937       .  S
O1569     Cd1574   2.077       .  S
Cd1570     O1572   2.077       .  S
Cd1571     O1575   2.067       .  S
Cd1571     O1584   2.029       .  S
Cd1574     O1576   2.070       .  S
O1575      C1582   1.271       .  A
C1577      C1671   1.436       .  S
C1580      C1670   1.432       .  S
C1582      C1657   1.436       .  S
N1585      C1590   1.353       .  A
N1585      C1589   1.360       .  A
N1585      H1617   1.036       .  S
N1586      C1593   1.356       .  A
N1586      C1594   1.353       .  A
N1587      C1592   1.360       .  A
N1587      C1591   1.352       .  A
N1587      H1618   1.036       .  S
N1588      C1595   1.352       .  A
N1588      C1596   1.359       .  A
C1589      C1597   1.386       .  A
C1589      C1605   1.421       .  A
C1590      C1606   1.422       .  A
C1590      C1598   1.390       .  A
C1591      C1599   1.391       .  A
C1592      C1607   1.420       .  A
C1592      C1600   1.386       .  A
C1593      C1605   1.417       .  A
C1593      C1601   1.385       .  A
C1594      C1608   1.419       .  A
C1594      C1602   1.389       .  A
C1595      C1603   1.389       .  A
C1596      C1604   1.384       .  A
C1596      C1607   1.419       .  A
C1597      C1598   1.378       .  A
C1597      H1609   1.082       .  S
C1598      H1610   1.082       .  S
C1599      C1600   1.378       .  A
C1599      H1611   1.082       .  S
C1600      H1612   1.082       .  S
C1601      C1602   1.374       .  A
C1601      H1613   1.082       .  S
C1602      H1614   1.082       .  S
C1603      C1604   1.375       .  A
C1603      H1615   1.082       .  S
C1604      H1616   1.082       .  S
C1605      C1655   1.469       .  S
C1606      C1664   1.451       .  S
C1607      C1653   1.475       .  S
C1608      C1662   1.453       .  S
N1619      C1624   1.360       .  A
N1619      C1623   1.353       .  A
N1619      H1651   1.038       .  S
N1620      C1627   1.351       .  A
N1620      C1628   1.355       .  A
N1621      C1626   1.353       .  A
N1621      C1625   1.360       .  A
N1621      H1652   1.038       .  S
N1622      C1629   1.358       .  A
N1622      C1630   1.352       .  A
C1623      C1631   1.389       .  A
C1623      C1639   1.419       .  A
C1624      C1640   1.420       .  A
C1624      C1632   1.386       .  A
C1625      C1633   1.386       .  A
C1625      C1642   1.420       .  A
C1626      C1641   1.420       .  A
C1626      C1634   1.390       .  A
C1627      C1639   1.416       .  A
C1627      C1635   1.389       .  A
C1628      C1642   1.415       .  A
C1628      C1636   1.385       .  A
C1629      C1637   1.385       .  A
C1629      C1640   1.418       .  A
C1630      C1638   1.389       .  A
C1630      C1641   1.420       .  A
C1631      C1632   1.377       .  A
C1631      H1643   1.082       .  S
C1632      H1644   1.082       .  S
C1633      C1634   1.377       .  A
C1633      H1645   1.082       .  S
C1634      H1646   1.082       .  S
C1635      C1636   1.374       .  A
C1635      H1647   1.082       .  S
C1636      H1648   1.082       .  S
C1637      C1638   1.376       .  A
C1637      H1649   1.082       .  S
C1638      H1650   1.082       .  S
C1639      C1660   1.450       .  S
C1640      C1654   1.474       .  S
C1641      C1658   1.452       .  S
C1642      C1656   1.469       .  S
C1653      C1654   1.222       .  T
C1655      C1656   1.218       .  T
C1657      C1658   1.207       .  T
C1659      C1660   1.206       .  T
C1661      C1662   1.208       .  T
C1663      C1664   1.206       .  T
C1665      C1666   1.188       .  T
C1667      C1668   1.186       .  T
C1669      C1670   1.205       .  T
C1671      C1672   1.207       .  T
C1673      C1674   1.223       .  T
C1675      C1676   1.223       .  T
C1677      C1678   1.207       .  T
C1679      C1680   1.206       .  T
