geometry optimzed in LAMMPS
_audit_creation_date              2020-11-30 
_audit_creation_method            'lammps2cif' 
_symmetry_space_group_name_H-M    'P1' 
_symmetry_Int_Tables_number       1 
_symmetry_cell_setting            triclinic 
loop_ 
_symmetry_equiv_pos_as_xyz 
  x,y,z 
_cell_length_a                    32.98599467 
_cell_length_b                    32.86192755745599 
_cell_length_c                    33.613416500801 
_cell_angle_alpha                 90.08898764328357 
_cell_angle_beta                  90.08858725037366 
_cell_angle_gamma                 89.9874569180066 
loop_ 
_atom_site_label 
_atom_site_type_symbol 
_atom_site_fract_x 
_atom_site_fract_y 
_atom_site_fract_z 
_atom_site_charge 
C1          C  0.36776855  0.36454466  0.13397989     0.88100
C2          C  0.33552022  0.38741321  0.15797605    -0.52200
C3          C  0.31596254  0.36333355  0.18466882     0.11000
C4          C  0.33094429  0.31901546  0.18532704     0.21900
C5          C  0.39619230  0.34530747  0.16485349    -0.52900
C6          C  0.37697823  0.32061102  0.19154799     0.11100
C7          C  0.34502422  0.32843036  0.11489173    -0.52400
C8          C  0.32571806  0.30465326  0.14225255     0.11700
H9          H  0.32586574  0.41825612  0.15123965     0.16200
H10         H  0.31464814  0.30086058  0.20773806     0.01900
H11         H  0.42884196  0.34970528  0.16472812     0.16500
H12         H  0.34454922  0.32210628  0.08317608     0.16300
C13         C  0.36559260  0.17682453  0.29418220     0.88100
C14         C  0.33187917  0.20494520  0.30936550    -0.52200
C15         C  0.31460708  0.22725796  0.27966182     0.11000
C16         C  0.33281484  0.21973604  0.23801451     0.21900
C17         C  0.34595671  0.15129870  0.26095566    -0.52900
C18         C  0.32805856  0.17365784  0.23132125     0.11100
C19         C  0.39549349  0.20475290  0.27266284    -0.52400
C20         C  0.37846564  0.22783620  0.24334971     0.11700
H21         H  0.32126348  0.20551210  0.33992785     0.16200
H22         H  0.31990324  0.23747588  0.21375094     0.01900
H23         H  0.34875034  0.11838149  0.25946000     0.16500
H24         H  0.42753549  0.20625318  0.28011598     0.16300
C25         C  0.18384489  0.18395958  0.12996707     0.88100
C26         C  0.16498941  0.20391556  0.16667751    -0.52200
C27         C  0.19292829  0.22190605  0.19082849     0.11000
C28         C  0.23726410  0.21765801  0.17611488     0.21900
C29         C  0.20806282  0.21819906  0.10959390    -0.52900
C30         C  0.23641616  0.23554351  0.13392172     0.11100
C31         C  0.21618538  0.15454651  0.14618336    -0.52400
C32         C  0.24562274  0.17201715  0.16962057     0.11700
H33         H  0.13263108  0.20469557  0.17255320     0.16200
H34         H  0.25893281  0.23290334  0.19567451     0.01900
H35         H  0.20357808  0.22744676  0.07889672     0.16500
H36         H  0.21869132  0.12351838  0.13517301     0.16300
C37         C  0.18459497  0.36119111  0.31034077     0.88100
C38         C  0.15966926  0.33568259  0.28017743    -0.52200
C39         C  0.18333070  0.31497764  0.25365843     0.11000
C40         C  0.22851046  0.32263395  0.25909571     0.21900
C41         C  0.21450671  0.33067537  0.32963606    -0.52900
C42         C  0.23746773  0.31008580  0.30224979     0.11100
C43         C  0.21165490  0.38925149  0.28525503    -0.52400
C44         C  0.23452551  0.36877947  0.25826566     0.11700
H45         H  0.12685347  0.33318240  0.28070939     0.16200
H46         H  0.24713670  0.30723411  0.23626033     0.01900
H47         H  0.21718090  0.32587723  0.36148183     0.16500
H48         H  0.21378347  0.42195157  0.28956763     0.16300
C49         C  0.36671176  0.18205923  0.63295861     0.88100
C50         C  0.39725878  0.20832906  0.65658163    -0.52200
C51         C  0.37920970  0.23223001  0.68449400     0.11000
C52         C  0.33329397  0.22756436  0.68622279     0.21900
C53         C  0.34314399  0.15781660  0.66467264    -0.52900
C54         C  0.32587794  0.18219986  0.69279614     0.11100
C55         C  0.33584355  0.21274586  0.61550053    -0.52400
C56         C  0.31865820  0.23694013  0.64402468     0.11700
H57         H  0.42974807  0.20839912  0.65136652     0.16200
H58         H  0.31889809  0.24669901  0.70905052     0.01900
H59         H  0.34176619  0.12482184  0.66573293     0.16500
H60         H  0.33039352  0.21677556  0.58388881     0.16300
C61         C  0.18515702  0.18556198  0.80669604     0.88100
C62         C  0.21474860  0.15694108  0.78454734    -0.52200
C63         C  0.23903393  0.17679880  0.75811475     0.11000
C64         C  0.23154476  0.22264178  0.75634207     0.21900
C65         C  0.21178301  0.21890154  0.82583563    -0.52900
C66         C  0.23642841  0.23821520  0.79924229     0.11100
C67         C  0.16151308  0.20747583  0.77342984    -0.52400
C68         C  0.18627824  0.22665654  0.74695515     0.11700
H69         H  0.21541432  0.12414545  0.78842080     0.16200
H70         H  0.25095426  0.23844215  0.73432546     0.01900
H71         H  0.21096390  0.22666631  0.85723649     0.16500
H72         H  0.12877047  0.20643320  0.77017246     0.16300
C73         C  0.18059330  0.36316131  0.62749696     0.88100
C74         C  0.20819905  0.38675625  0.65654848    -0.52200
C75         C  0.22885510  0.36184578  0.68184907     0.11000
C76         C  0.22103246  0.31656348  0.67508598     0.21900
C77         C  0.20857077  0.33275429  0.60572719    -0.52900
C78         C  0.23010003  0.30850477  0.63101613     0.11100
C79         C  0.15337091  0.33665918  0.65440468    -0.52400
C80         C  0.17506105  0.31185232  0.67905527     0.11700
H81         H  0.20931330  0.41972599  0.65854156     0.16200
H82         H  0.23844153  0.29689204  0.69578372     0.01900
H83         H  0.21115140  0.33072656  0.57358365     0.16500
H84         H  0.12046051  0.33732937  0.65387060     0.16300
C85         C  0.36963543  0.36927814  0.79475428     0.88100
C86         C  0.39685939  0.34712275  0.76438468    -0.52200
C87         C  0.37520906  0.32588860  0.73675281     0.11000
C88         C  0.32930353  0.32855795  0.74232287     0.21900
C89         C  0.34087389  0.39591696  0.76968526    -0.52900
C90         C  0.31967459  0.37403984  0.74222198     0.11100
C91         C  0.34269857  0.33564701  0.81292145    -0.52400
C92         C  0.32168052  0.31416876  0.78489362     0.11700
H93         H  0.42976872  0.34813498  0.76469853     0.16200
H94         H  0.31160476  0.31154609  0.72000236     0.01900
H95         H  0.33732273  0.42853704  0.77355537     0.16500
H96         H  0.34225315  0.32804971  0.84434697     0.16300
C97         C  0.43297199  0.43452236  0.05601871     0.44000
N98         N  0.44923896  0.47613332  0.00998268     0.02900
C99         C  0.62340140  0.47440338  0.89541326    -0.05000
H100        H  0.64975844  0.49421734  0.04634279     0.08400
C101        C  0.57145097  0.62921458  0.03668835    -0.05300
Co102      Co  0.52441657  0.44974599  0.96780032     0.74200
N103        N  0.59615141  0.48278055  0.01111979    -0.24500
Co104      Co  0.59578670  0.52743756  0.96727515     0.74100
C105        C  0.60940051  0.61637687  0.05500973     0.44100
N106        N  0.47317961  0.59658912  0.00830589     0.02500
N107        N  0.59318025  0.57343923  0.00988878     0.02600
N108        N  0.57645474  0.42411976  0.89708718    -0.45300
H109        H  0.48887783  0.39443423  0.04465615     0.08400
N110        N  0.56896988  0.45329735  0.01147848     0.02900
N111        N  0.59399166  0.57222333  0.92342478     0.02700
C112        C  0.61092884  0.61409386  0.87775717     0.44300
N113        N  0.44610217  0.56697030  0.00835783    -0.23900
C114        C  0.47297257  0.41993506  0.89585135    -0.04900
N115        N  0.42066568  0.46818590  0.03654415    -0.45000
N116        N  0.62286506  0.58030856  0.89723638    -0.45300
C117        C  0.43561416  0.43323646  0.87696110     0.44000
N118        N  0.56959578  0.45191998  0.92480704     0.02900
N119        N  0.44701054  0.56525510  0.92207019    -0.24000
N120        N  0.47879688  0.44903399  0.01039901    -0.24500
N121        N  0.47400052  0.59493082  0.92159803     0.02600
H122        H  0.39357571  0.55307983  0.88687185     0.08400
H123        H  0.55507638  0.65436154  0.88900096     0.08500
N124        N  0.59672061  0.48146804  0.92464148    -0.24500
N125        N  0.56378731  0.60073244  0.00905981    -0.24100
N126        N  0.45020623  0.47489157  0.92348263     0.02900
C127        C  0.60914814  0.43896484  0.05931047     0.44300
C128        C  0.41873094  0.57438410  0.03686414    -0.05400
N129        N  0.56449603  0.59939125  0.92290263    -0.24100
H130        H  0.55394029  0.65659162  0.04159549     0.08500
N131        N  0.57608630  0.42593108  0.03948458    -0.45300
H132        H  0.39206517  0.55632658  0.04302093     0.08500
C133        C  0.43363166  0.60862962  0.87365536     0.44200
C134        C  0.47113603  0.42142969  0.03867385    -0.04900
Co135      Co  0.44736549  0.52081708  0.96601515     0.73800
N136        N  0.46557070  0.62482025  0.03543978    -0.45100
C137        C  0.60943982  0.43680244  0.87711066     0.44400
N138        N  0.42275845  0.46706861  0.89573481    -0.45000
Co139      Co  0.51869595  0.59867699  0.96545658     0.73900
C140        C  0.57257582  0.62717920  0.89485623    -0.05400
C141        C  0.62298020  0.47621272  0.04038136    -0.04900
N142        N  0.47966476  0.44771780  0.92431649    -0.24500
N143        N  0.62150482  0.58202382  0.03659816    -0.45200
H144        H  0.64988049  0.49257025  0.88881358     0.08400
C145        C  0.42017892  0.57137550  0.89275095    -0.05300
Cl146      Cl  0.52156948  0.52421352  0.96669811    -0.48300
C147        C  0.43207287  0.61236409  0.05477747     0.44200
H148        H  0.49109224  0.39309336  0.89029033     0.08400
N149        N  0.46662574  0.62209576  0.89340848    -0.45100
C150        C  0.36835458  0.68220385  0.13411078     0.88100
C151        C  0.39449791  0.71536557  0.15391590    -0.52200
C152        C  0.37329737  0.73849978  0.18027610     0.11000
C153        C  0.32887328  0.72582842  0.18485687     0.21900
C154        C  0.35040686  0.65725482  0.16875076    -0.52900
C155        C  0.32957246  0.68067236  0.19526303     0.11100
C156        C  0.33179048  0.70490714  0.11571699    -0.52400
C157        C  0.31102805  0.72754469  0.14304404     0.11700
H158        H  0.42633571  0.72039143  0.14735827     0.16200
H159        H  0.31199410  0.74427698  0.20666430     0.01900
H160        H  0.35334522  0.62447906  0.17165473     0.16500
H161        H  0.32205218  0.70152781  0.08501746     0.16300
C162        C  0.17710839  0.85693101  0.12382190     0.88100
C163        C  0.20893445  0.83035267  0.10260038    -0.52200
C164        C  0.23306743  0.80929767  0.12836656     0.11000
C165        C  0.22371415  0.81778593  0.17245158     0.21900
C166        C  0.15396519  0.82742342  0.15144282    -0.52900
C167        C  0.17875335  0.80707475  0.17726204     0.11100
C168        C  0.20194444  0.88485292  0.15143683    -0.52400
C169        C  0.22627859  0.86411354  0.17707595     0.11700
H170        H  0.21174487  0.82800856  0.07049145     0.16200
H171        H  0.24408935  0.80122669  0.19298344     0.01900
H172        H  0.12140878  0.82268938  0.15025308     0.16500
H173        H  0.20146591  0.91786306  0.14982205     0.16300
C174        C  0.18862135  0.67974512  0.31003061     0.88100
C175        C  0.21415903  0.65359856  0.28133492    -0.52200
C176        C  0.24016378  0.67599340  0.25874036     0.11000
C177        C  0.23772047  0.72180077  0.26649479     0.21900
C178        C  0.21941454  0.70507430  0.33435358    -0.52900
C179        C  0.24538640  0.72699835  0.31116892     0.11100
C180        C  0.16691827  0.71124613  0.28340853    -0.52400
C181        C  0.19317261  0.73344346  0.26076366     0.11700
H182        H  0.21177515  0.62072074  0.27902262     0.16200
H183        H  0.25800368  0.74006424  0.24737941     0.01900
H184        H  0.21962365  0.70667429  0.36662677     0.16500
H185        H  0.13463304  0.71754809  0.28477396     0.16300
C186        C  0.36001212  0.86899553  0.29846822     0.88100
C187        C  0.38202979  0.85360018  0.26091158    -0.52200
C188        C  0.35818199  0.82922501  0.23787660     0.11000
C189        C  0.31568087  0.82242923  0.25442447     0.21900
C190        C  0.32103129  0.88990767  0.28326591    -0.52900
C191        C  0.29797813  0.86490290  0.25998116     0.11100
C192        C  0.34553398  0.83024388  0.31998945    -0.52400
C193        C  0.32233529  0.80585986  0.29637862     0.11700
H194        H  0.41319903  0.86096757  0.25346458     0.16200
H195        H  0.29655808  0.80255852  0.23571888     0.01900
H196        H  0.31253193  0.92102179  0.29028373     0.16500
H197        H  0.35413383  0.82213609  0.35015608     0.16300
C198        C  0.42926874  0.93728948  0.37417949     0.44000
N199        N  0.46950332  0.94956819  0.42249056     0.02900
C200        C  0.47073556  0.12484118  0.53744205    -0.05000
H201        H  0.48615501  0.15169168  0.38852019     0.08400
C202        C  0.61992844  0.06749455  0.39097527    -0.05300
Co203      Co  0.44488750  0.02470151  0.46644056     0.74200
N204        N  0.47637927  0.09708926  0.42298998    -0.24500
Co205      Co  0.52283182  0.09506088  0.46540639     0.74100
C206        C  0.60692138  0.10548013  0.37289599     0.44100
N207        N  0.58933661  0.97035143  0.42087797     0.02500
N208        N  0.56704031  0.09148449  0.42105108     0.02600
N209        N  0.42019262  0.07819160  0.53649151    -0.45300
H210        H  0.39040547  0.99367758  0.38743987     0.08400
N211        N  0.44676098  0.07005530  0.42335457     0.02900
N212        N  0.56903984  0.09153401  0.50806395     0.02700
C213        C  0.61120033  0.10520322  0.55474734     0.44300
N214        N  0.55968738  0.94339418  0.42184408    -0.23900
C215        C  0.41690246  0.97297255  0.53847887    -0.04900
N216        N  0.46192353  0.92291209  0.39382810    -0.45000
N217        N  0.57763060  0.11881748  0.53594638    -0.45300
C218        C  0.42980652  0.93509645  0.55675035     0.44000
N219        N  0.44840190  0.06978676  0.50972809     0.02900
N220        N  0.56090123  0.94452317  0.50842109    -0.24000
N221        N  0.44309213  0.97977971  0.42308743    -0.24500
N222        N  0.59064723  0.97141116  0.50766660     0.02600
H223        H  0.54950814  0.89198805  0.54539107     0.08400
H224        H  0.64998546  0.04889826  0.54075180     0.08500
N225        N  0.47808373  0.09677291  0.50934084    -0.24500
N226        N  0.59346861  0.06125957  0.42054595    -0.24100
N227        N  0.47043159  0.94926254  0.50934503     0.02900
C228        C  0.42989060  0.11175266  0.37749595     0.44300
C229        C  0.56644263  0.91508410  0.39380292    -0.05400
N230        N  0.59565945  0.06152918  0.50699649    -0.24100
H231        H  0.64603872  0.04878585  0.38431811     0.08500
N232        N  0.41803951  0.07796204  0.39686195    -0.45300
H233        H  0.54831106  0.88815837  0.38867639     0.08500
C234        C  0.60563347  0.93218918  0.55615380     0.44200
C235        C  0.41630873  0.97450150  0.39360363    -0.04900
Co236      Co  0.51499123  0.94580231  0.46554883     0.73800
N237        N  0.61699601  0.96169574  0.39357915    -0.45100
C238        C  0.43262816  0.11209065  0.55542032     0.44400
N239        N  0.46273526  0.92162908  0.53699777    -0.45000
Co240      Co  0.59300360  0.01611266  0.46389910     0.73900
C241        C  0.62357729  0.06763476  0.53541019    -0.05400
C242        C  0.46833021  0.12484004  0.39477472    -0.04900
N243        N  0.44389443  0.97934703  0.50942545    -0.24500
N244        N  0.57441106  0.11906396  0.39326104    -0.45200
H245        H  0.48846679  0.15199063  0.54279122     0.08400
C246        C  0.56786489  0.91821563  0.53817543    -0.05300
Cl247      Cl  0.51893958  0.02044858  0.46532013    -0.48300
C248        C  0.60417677  0.92759200  0.37506369     0.44200
H249        H  0.39063968  0.99160669  0.54474707     0.08400
N250        N  0.61837922  0.96478660  0.53542941    -0.45100
C251        C  0.67538054  0.36377265  0.80271091     0.88100
C252        C  0.71283389  0.38512317  0.78499664    -0.52200
C253        C  0.73580757  0.35974094  0.76219331     0.11000
C254        C  0.71893421  0.31654225  0.75865590     0.21900
C255        C  0.65207768  0.34619982  0.76683011    -0.52900
C256        C  0.67532570  0.32119957  0.74392994     0.11100
C257        C  0.69243371  0.32645987  0.82516347    -0.52400
C258        C  0.71528762  0.30181513  0.80139846     0.11700
H259        H  0.72147363  0.41629501  0.79163086     0.16200
H260        H  0.73756706  0.29630168  0.73983887     0.01900
H261        H  0.62058294  0.35299705  0.76011527     0.16500
H262        H  0.68695487  0.32020059  0.85640559     0.16300
C263        C  0.85270495  0.36728937  0.62496521     0.88100
C264        C  0.87501897  0.33267609  0.64697749    -0.52200
C265        C  0.85046885  0.31134936  0.67205999     0.11000
C266        C  0.80662873  0.32635473  0.67249561     0.21900
C267        C  0.81678844  0.34652610  0.60366274    -0.52900
C268        C  0.79254677  0.32528909  0.62907514     0.11100
C269        C  0.83297461  0.39360497  0.65769921    -0.52400
C270        C  0.80891200  0.37177286  0.68277603     0.11700
H271        H  0.90677091  0.32526038  0.64251037     0.16200
H272        H  0.78681610  0.30841502  0.69241730     0.01900
H273        H  0.81004631  0.35004444  0.57222390     0.16500
H274        H  0.83659454  0.42637671  0.65996853     0.16300
C275        C  0.67807311  0.18125711  0.62616368     0.88100
C276        C  0.69955759  0.21254050  0.59912474    -0.52200
C277        C  0.71992234  0.24186972  0.61980823     0.11000
C278        C  0.71700700  0.23689428  0.66493609     0.21900
C279        C  0.71222448  0.16402771  0.65283614    -0.52900
C280        C  0.73273919  0.19387069  0.67292302     0.11100
C281        C  0.65103191  0.20622245  0.65445750    -0.52400
C282        C  0.67171992  0.23566035  0.67455424     0.11700
H283        H  0.70011787  0.21055040  0.56687443     0.16200
H284        H  0.73396857  0.26018713  0.68194899     0.01900
H285        H  0.72084257  0.13215583  0.65375053     0.16500
H286        H  0.61890705  0.20055543  0.65881780     0.16300
C287        C  0.85872188  0.18716157  0.80861922     0.88100
C288        C  0.88067767  0.21768823  0.78123060    -0.52200
C289        C  0.85473743  0.24060594  0.75884599     0.11000
C290        C  0.80996472  0.23097261  0.76602136     0.21900
C291        C  0.82968429  0.21347866  0.83359741    -0.52900
C292        C  0.80377837  0.23607283  0.81102725     0.11100
C293        C  0.83093759  0.16181648  0.78097455    -0.52400
C294        C  0.80563935  0.18515645  0.75824204     0.11700
H295        H  0.91334276  0.22174231  0.78066011     0.16200
H296        H  0.78930201  0.25020975  0.74806576     0.01900
H297        H  0.82965997  0.21423198  0.86590328     0.16500
H298        H  0.83146398  0.12881542  0.77937475     0.16300
C299        C  0.35884434  0.67730380  0.80330586     0.88100
C300        C  0.33321449  0.70686408  0.82868070    -0.52200
C301        C  0.30663652  0.72920092  0.80657344     0.11000
C302        C  0.30776350  0.71924982  0.76208102     0.21900
C303        C  0.32770249  0.65087616  0.78068769    -0.52900
C304        C  0.30093158  0.67342107  0.75903214     0.11100
C305        C  0.37909429  0.70387439  0.77109705    -0.52400
C306        C  0.35166152  0.72550171  0.74927867     0.11700
H307        H  0.33609205  0.71004891  0.86072056     0.16200
H308        H  0.28580708  0.73740109  0.74484791     0.01900
H309        H  0.32704202  0.61784915  0.78155203     0.16500
H310        H  0.41140542  0.70400336  0.76496025     0.16300
C311        C  0.36284153  0.86932114  0.63679764     0.88100
C312        C  0.32899744  0.84366527  0.61701243    -0.52200
C313        C  0.30626882  0.82269088  0.64400692     0.11000
C314        C  0.31996877  0.82856606  0.68702098     0.21900
C315        C  0.34071462  0.89639009  0.66748554    -0.52900
C316        C  0.31808276  0.87446490  0.69376835     0.11100
C317        C  0.38797195  0.83903313  0.66160957    -0.52400
C318        C  0.36502821  0.81739440  0.68771271     0.11700
H319        H  0.32241007  0.84383705  0.58535314     0.16200
H320        H  0.30213984  0.81084037  0.70867164     0.01900
H321        H  0.34204922  0.92940676  0.66777721     0.16500
H322        H  0.42039850  0.83450725  0.65821930     0.16300
C323        C  0.18497356  0.68317043  0.62415731     0.88100
C324        C  0.16457190  0.70743443  0.65828643    -0.52200
C325        C  0.19202196  0.72703975  0.68207084     0.11000
C326        C  0.23593963  0.72114591  0.66916557     0.21900
C327        C  0.21110233  0.71441186  0.60149129    -0.52900
C328        C  0.23759412  0.73465744  0.62560381     0.11100
C329        C  0.21558234  0.65476593  0.64498710    -0.52400
C330        C  0.24219413  0.67512906  0.66875023     0.11700
H331        H  0.13220806  0.70738761  0.66411789     0.16200
H332        H  0.25798120  0.73748510  0.68797475     0.01900
H333        H  0.20843878  0.72035344  0.56982610     0.16500
H334        H  0.21566678  0.62186422  0.64186057     0.16300
C335        C  0.18008175  0.86325825  0.80546118     0.88100
C336        C  0.15505914  0.83410556  0.77899403    -0.52200
C337        C  0.17811061  0.81385766  0.75172074     0.11000
C338        C  0.22309890  0.82531242  0.75304688     0.21900
C339        C  0.21410980  0.83679889  0.82380647    -0.52900
C340        C  0.23689768  0.81732421  0.79569590     0.11100
C341        C  0.20202142  0.89189711  0.77614528    -0.52400
C342        C  0.22466885  0.87152062  0.74869987     0.11700
H343        H  0.12260812  0.82950715  0.78196555     0.16200
H344        H  0.24108688  0.80889653  0.73049617     0.01900
H345        H  0.22089078  0.83556057  0.85539963     0.16500
H346        H  0.20038793  0.92488143  0.77744109     0.16300
C347        C  0.67790209  0.86991705  0.29435699     0.88100
C348        C  0.70502544  0.83506193  0.30943778    -0.52200
C349        C  0.73097159  0.82075613  0.28098754     0.11000
C350        C  0.72769362  0.84315047  0.24069556     0.21900
C351        C  0.70748107  0.90196125  0.27879492    -0.52900
C352        C  0.73456133  0.88830784  0.25089592     0.11100
C353        C  0.65646501  0.85284177  0.25737589    -0.52400
C354        C  0.68279696  0.83886917  0.22933760     0.11700
H355        H  0.70220851  0.82141280  0.33870418     0.16200
H356        H  0.74665633  0.83084784  0.21684619     0.01900
H357        H  0.70765584  0.93297752  0.29010662     0.16500
H358        H  0.62376435  0.85048403  0.25432963     0.16300
C359        C  0.86314741  0.68792608  0.30388084     0.88100
C360        C  0.89261528  0.71436313  0.27931269    -0.52200
C361        C  0.87330868  0.74067414  0.25435721     0.11000
C362        C  0.82712554  0.73735269  0.25569447     0.21900
C363        C  0.83476965  0.71866247  0.32504837    -0.52900
C364        C  0.81530709  0.74425108  0.29920779     0.11100
C365        C  0.83601734  0.66631127  0.27280074    -0.52400
C366        C  0.81713132  0.69272854  0.24749697     0.11700
H367        H  0.92540793  0.71265716  0.28169632     0.16200
H368        H  0.81245620  0.75871419  0.23518877     0.01900
H369        H  0.82986382  0.71938020  0.35697341     0.16500
H370        H  0.83241402  0.63352585  0.27082860     0.16300
C371        C  0.67822369  0.68837387  0.12891967     0.88100
C372        C  0.70170112  0.66544922  0.16175209    -0.52200
C373        C  0.72215337  0.69081375  0.18691462     0.11000
C374        C  0.71679587  0.73588474  0.17705216     0.21900
C375        C  0.65043674  0.71850818  0.15102844    -0.52900
C376        C  0.67113892  0.74381857  0.17582268     0.11100
C377        C  0.71024823  0.71538317  0.10800842    -0.52400
C378        C  0.73083128  0.74022866  0.13377876     0.11700
H379        H  0.70281390  0.63252324  0.16422244     0.16200
H380        H  0.73212098  0.75636088  0.19823109     0.01900
H381        H  0.61792351  0.72068070  0.14632794     0.16500
H382        H  0.71587439  0.71498018  0.07619344     0.16300
C383        C  0.86597311  0.86686958  0.13251025     0.88100
C384        C  0.89196171  0.84762933  0.16581636    -0.52200
C385        C  0.86936006  0.83325135  0.19674332     0.11000
C386        C  0.82369542  0.83932693  0.19170898     0.21900
C387        C  0.83600112  0.83343511  0.12006710    -0.52900
C388        C  0.81422031  0.81850769  0.15137291     0.11100
C389        C  0.83994499  0.89905041  0.15331731    -0.52400
C390        C  0.81735947  0.88514456  0.18462557     0.11700
H391        H  0.92474244  0.84488951  0.16464498     0.16200
H392        H  0.80807104  0.82698303  0.21789621     0.01900
H393        H  0.83429409  0.82084809  0.09022442     0.16500
H394        H  0.84099549  0.93101889  0.14507367     0.16300
C395        C  0.68475021  0.68227475  0.80544173     0.88100
C396        C  0.66157777  0.71418808  0.78062383    -0.52200
C397        C  0.68610747  0.73634408  0.75621180     0.11000
C398        C  0.73115371  0.72516737  0.75972244     0.21900
C399        C  0.70875965  0.65656486  0.77524305    -0.52900
C400        C  0.73310135  0.67932714  0.75129325     0.11100
C401        C  0.71709154  0.70662948  0.82841304    -0.52400
C402        C  0.74112405  0.72949920  0.80421817     0.11700
H403        H  0.62901485  0.71877851  0.78221565     0.16200
H404        H  0.75132696  0.74359524  0.74048249     0.01900
H405        H  0.70739807  0.62358106  0.77362818     0.16500
H406        H  0.72021238  0.70638186  0.86058154     0.16300
C407        C  0.85150862  0.68387826  0.61939822     0.88100
C408        C  0.81698955  0.65907402  0.63867619    -0.52200
C409        C  0.79014436  0.68282812  0.65900598     0.11000
C410        C  0.80028480  0.72807689  0.65833360     0.21900
C411        C  0.83016985  0.71602480  0.59344479    -0.52900
C412        C  0.80344002  0.73934643  0.61425904     0.11100
C413        C  0.87097041  0.70778749  0.65417439    -0.52400
C414        C  0.84344778  0.73057943  0.67481608     0.11700
H415        H  0.81456572  0.62615125  0.63715629     0.16200
H416        H  0.77822593  0.74677972  0.67507328     0.01900
H417        H  0.83553006  0.71982456  0.56179666     0.16500
H418        H  0.90246199  0.70475650  0.66314635     0.16300
C419        C  0.68301857  0.86985802  0.62973742     0.88100
C420        C  0.66482335  0.83298662  0.65180695    -0.52200
C421        C  0.69306587  0.81197586  0.67321640     0.11000
C422        C  0.73575960  0.82960632  0.67058283     0.21900
C423        C  0.70391969  0.89554461  0.66239744    -0.52900
C424        C  0.73193714  0.87397191  0.68361033     0.11100
C425        C  0.71783807  0.85205260  0.60433105    -0.52400
C426        C  0.74548755  0.83103475  0.62640486     0.11700
H427        H  0.63336535  0.82355384  0.64941922     0.16200
H428        H  0.75790997  0.81183810  0.68757972     0.01900
H429        H  0.69691454  0.92724765  0.66841230     0.16500
H430        H  0.72023723  0.85555483  0.57230176     0.16300
C431        C  0.86787701  0.86296451  0.80269973     0.88100
C432        C  0.83433931  0.83851018  0.82408445    -0.52200
C433        C  0.80889937  0.81911253  0.79827673     0.11000
C434        C  0.81932746  0.82560004  0.75477174     0.21900
C435        C  0.88960849  0.83206155  0.77537615    -0.52900
C436        C  0.86362242  0.81209807  0.75038912     0.11100
C437        C  0.84524710  0.89173160  0.77394677    -0.52400
C438        C  0.81951182  0.87167575  0.74894415     0.11700
H439        H  0.83043598  0.83766211  0.85614293     0.16200
H440        H  0.79848185  0.80950975  0.73474722     0.01900
H441        H  0.92205589  0.82651128  0.77582811     0.16500
H442        H  0.84947309  0.92449651  0.77319502     0.16300
C443        C  0.93356497  0.11551958  0.05418828     0.44000
N444        N  0.94942524  0.06806907  0.01346997     0.02900
C445        C  0.12421485  0.95104314  0.01545208    -0.05000
H446        H  0.15102739  0.10572818  0.00134998     0.08400
C447        C  0.07346084  0.09985648  0.86697728    -0.05300
Co448      Co  0.02441720  0.02430340  0.03952077     0.74200
N449        N  0.09691563  0.06983095  0.01010625    -0.24500
Co450      Co  0.09697619  0.02598674  0.96489511     0.74100
C451        C  0.11129866  0.11833761  0.88019511     0.44100
N452        N  0.97471941  0.07001544  0.89601824     0.02500
N453        N  0.09491979  0.07090095  0.92084667     0.02600
N454        N  0.07636575  0.95129127  0.06367548    -0.45300
H455        H  0.98894663  0.10284890  0.09383227     0.08400
N456        N  0.06930382  0.06934008  0.03853087     0.02900
N457        N  0.09537034  0.98195006  0.91993025     0.02700
C458        C  0.11064868  0.93376665  0.87970019     0.44300
N459        N  0.94702363  0.06893914  0.92436294    -0.23900
C460        C  0.97254800  0.94991505  0.06600623    -0.04900
N461        N  0.92123972  0.09575907  0.02109542    -0.45000
N462        N  0.12312316  0.95368776  0.91266478    -0.45300
C463        C  0.93516227  0.93062555  0.05272882     0.44000
N464        N  0.06981742  0.98033850  0.03713633     0.02900
N465        N  0.94844077  0.98040948  0.92333755    -0.24000
N466        N  0.97873543  0.06794196  0.04029665    -0.24500
N467        N  0.97607937  0.98126601  0.89495566     0.02600
H468        H  0.89513287  0.94335921  0.93229674     0.08400
H469        H  0.05548902  0.94688352  0.83986786     0.08500
N470        N  0.09747388  0.98104959  0.00877952    -0.24500
N471        N  0.06568476  0.07083756  0.89393158    -0.24100
N472        N  0.95025111  0.97906824  0.01257923     0.02900
C473        C  0.10985562  0.11746790  0.05537384     0.44300
C474        C  0.91886890  0.09735015  0.91665142    -0.05400
N475        N  0.06617684  0.98233295  0.89300421    -0.24100
H476        H  0.05613229  0.10549693  0.84020363     0.08500
N477        N  0.07635605  0.09689918  0.06659610    -0.45300
H478        H  0.89134853  0.10226734  0.93343837     0.08500
C479        C  0.93678190  0.93229502  0.87848027     0.44200
C480        C  0.97124849  0.09695457  0.06733010    -0.04900
Co481      Co  0.94796765  0.02410722  0.96848735     0.73800
N482        N  0.96656252  0.09755978  0.86833908    -0.45100
C483        C  0.10971374  0.93119398  0.05143910     0.44400
N484        N  0.92250908  0.95077686  0.01994099    -0.45000
Co485      Co  0.02060463  0.02623396  0.89381966     0.73900
C486        C  0.07332190  0.95291673  0.86625332    -0.05400
C487        C  0.12389783  0.09929790  0.01823906    -0.04900
N488        N  0.97954473  0.97945965  0.03940928    -0.24500
N489        N  0.12330278  0.09840829  0.91327563    -0.45200
H490        H  0.15107069  0.94485802  0.99804254     0.08400
C491        C  0.92207860  0.95038545  0.91535239    -0.05300
Cl492      Cl  0.02248147  0.02524188  0.96667414    -0.48300
C493        C  0.93218782  0.11645200  0.87982012     0.44200
H494        H  0.99028303  0.94414421  0.09249372     0.08400
N495        N  0.96981106  0.95336456  0.86714027    -0.45100
C496        C  0.67343640  0.17421030  0.29464928     0.88100
C497        C  0.64666651  0.20257541  0.26945309    -0.52200
C498        C  0.66808970  0.22459471  0.24248073     0.11000
C499        C  0.71382223  0.21654609  0.24365829     0.21900
C500        C  0.69776839  0.14805917  0.26475760    -0.52900
C501        C  0.71896550  0.17066209  0.23781429     0.11100
C502        C  0.70549159  0.20225160  0.31407219    -0.52400
C503        C  0.72693705  0.22419099  0.28674964     0.11700
H504        H  0.61407917  0.20549312  0.27308611     0.16200
H505        H  0.73132814  0.23511029  0.22243092     0.01900
H506        H  0.69986872  0.11511618  0.26627751     0.16500
H507        H  0.71274992  0.20208239  0.34558966     0.16300
C508        C  0.86126744  0.18629407  0.12547932     0.88100
C509        C  0.84445407  0.22551844  0.10641825    -0.52200
C510        C  0.82019657  0.24705696  0.13163509     0.11000
C511        C  0.81477836  0.22748422  0.17248210     0.21900
C512        C  0.88264461  0.20045820  0.16403613    -0.52900
C513        C  0.85776335  0.22229068  0.18849311     0.11100
C514        C  0.82354338  0.16247023  0.13925817    -0.52400
C515        C  0.79921847  0.18447061  0.16398502     0.11700
H516        H  0.85168819  0.23563251  0.07651923     0.16200
H517        H  0.79489973  0.24506537  0.19260422     0.01900
H518        H  0.91423066  0.19436662  0.17095580     0.16500
H519        H  0.81586864  0.13209398  0.12894333     0.16300
C520        C  0.67772849  0.36118341  0.12620388     0.88100
C521        C  0.71067524  0.34145757  0.09993642    -0.52200
C522        C  0.73377969  0.31391882  0.12005515     0.11000
C523        C  0.72124858  0.30825029  0.16350240     0.21900
C524        C  0.65288032  0.32523056  0.14266875    -0.52900
C525        C  0.67625821  0.29745827  0.16210322     0.11100
C526        C  0.70044269  0.37902231  0.16245392    -0.52400
C527        C  0.72308944  0.35060182  0.18199304     0.11700
H528        H  0.71523177  0.34854136  0.06871476     0.16200
H529        H  0.73979258  0.28560414  0.17954793     0.01900
H530        H  0.62039967  0.32167381  0.13863199     0.16500
H531        H  0.69747534  0.41027256  0.17258014     0.16300
C532        C  0.85614878  0.36000884  0.30929772     0.88100
C533        C  0.83038593  0.38431334  0.27932438    -0.52200
C534        C  0.80850737  0.36009840  0.25428759     0.11000
C535        C  0.81539016  0.31437878  0.26079586     0.21900
C536        C  0.82569564  0.33136066  0.33035223    -0.52900
C537        C  0.80448449  0.30705397  0.30455813     0.11100
C538        C  0.88296817  0.33212739  0.28338997    -0.52400
C539        C  0.86128206  0.30800668  0.25810823     0.11700
H540        H  0.82884455  0.41731748  0.27861872     0.16200
H541        H  0.79814684  0.29560205  0.23927149     0.01900
H542        H  0.82109621  0.33075354  0.36232184     0.16500
H543        H  0.91588074  0.33213523  0.28434571     0.16300
C544        C  0.11200272  0.43466089  0.55315077     0.44000
N545        N  0.06420905  0.47568471  0.53745048     0.02900
C546        C  0.94680288  0.47142522  0.36582868    -0.05000
H547        H  0.09999380  0.48799139  0.34009610     0.08400
C548        C  0.09237586  0.62614340  0.41719199    -0.05300
Co549      Co  0.01991760  0.44830999  0.46435288     0.74200
N550        N  0.06438514  0.47913122  0.39330979    -0.24500
Co551      Co  0.02011618  0.52496670  0.39339981     0.74100
C552        C  0.11129671  0.61268214  0.38034508     0.44100
N553        N  0.06315590  0.59600529  0.51341649     0.02500
N554        N  0.06424749  0.57068912  0.39580985     0.02600
N555        N  0.94796277  0.42183875  0.41246384    -0.45300
H556        H  0.09926270  0.39354945  0.49914598     0.08400
N557        N  0.06416587  0.45007223  0.42041893     0.02900
N558        N  0.97571848  0.57065189  0.39483367     0.02700
C559        C  0.92917655  0.61301870  0.37812253     0.44300
N560        N  0.06320091  0.56674800  0.54033105    -0.23900
C561        C  0.94690798  0.42007171  0.51582260    -0.04900
N562        N  0.09202865  0.46836153  0.56501561    -0.45000
N563        N  0.94887947  0.57896667  0.36651908    -0.45300
C564        C  0.92828306  0.43360737  0.55273289     0.44000
N565        N  0.97573424  0.45008241  0.41973339     0.02900
N566        N  0.97561256  0.56599390  0.54004567    -0.24000
N567        N  0.06403023  0.44804879  0.50888941    -0.24500
N568        N  0.97508026  0.59520539  0.51307234     0.02600
H569        H  0.94232847  0.55670061  0.59454208     0.08400
H570        H  0.94148516  0.65335811  0.43276340     0.08500
N571        N  0.97596003  0.47923139  0.39269343    -0.24500
N572        N  0.06359310  0.59829422  0.42444007    -0.24100
N573        N  0.97571682  0.47506652  0.53737995     0.02900
C574        C  0.11187455  0.43288867  0.38075179     0.44300
C575        C  0.09123474  0.57535612  0.56802027    -0.05400
N576        N  0.97555000  0.59800130  0.42369379    -0.24100
H577        H  0.09783947  0.65340692  0.43445338     0.08500
N578        N  0.09165239  0.42149569  0.41365737    -0.45300
H579        H  0.09667690  0.55822808  0.59495754     0.08500
C580        C  0.92906320  0.61193518  0.55471227     0.44200
C581        C  0.09330594  0.42076695  0.51630157    -0.04900
Co582      Co  0.01971087  0.52074474  0.53945062     0.73800
N583        N  0.08964054  0.62518008  0.52156302    -0.45100
C584        C  0.92809531  0.43369012  0.37933398     0.44400
N585        N  0.94795501  0.46742123  0.56483944    -0.45000
Co586      Co  0.01928357  0.59749046  0.46868093     0.73900
C587        C  0.94707835  0.62600404  0.41569575    -0.05400
C588        C  0.09370063  0.47082097  0.36680659    -0.04900
N589        N  0.97592519  0.44764119  0.50862860    -0.24500
N590        N  0.09203121  0.57855029  0.36840451    -0.45200
H591        H  0.94083308  0.48891920  0.33922755     0.08400
C592        C  0.94742630  0.57397231  0.56764425    -0.05300
Cl593      Cl  0.01972959  0.52291290  0.46644927    -0.48300
C594        C  0.10879855  0.61377270  0.55518150     0.44200
H595        H  0.94106753  0.39296886  0.49844162     0.08400
N596        N  0.94796426  0.62379680  0.52113494    -0.45100
C597        C  0.87984631  0.38619051  0.33642164    -0.11700
C598        C  0.90096248  0.40797425  0.35682872    -0.13300
C599        C  0.74364710  0.35609433  0.22048406    -0.14900
C600        C  0.77953969  0.37496428  0.22387046    -0.30000
H601        H  0.73495545  0.33447805  0.24340230     0.14200
H602        H  0.79000829  0.39580228  0.20105029     0.14700
C603        C  0.80164957  0.28687307  0.12350587    -0.14900
C604        C  0.76695745  0.28937975  0.10286965    -0.30000
H605        H  0.80730829  0.30983870  0.14619666     0.14200
H606        H  0.75894068  0.26579770  0.08159274     0.14700
C607        C  0.86936509  0.24151326  0.22654843    -0.14900
C608        C  0.87901020  0.28120245  0.22727290    -0.30000
H609        H  0.85670100  0.22794097  0.25317968     0.14200
H610        H  0.88941433  0.29580025  0.20016844     0.14700
C611        C  0.66215996  0.25869561  0.17885436    -0.14900
C612        C  0.65086136  0.25689921  0.21704817    -0.30000
H613        H  0.67544358  0.23169538  0.16557834     0.14200
H614        H  0.63906290  0.28386193  0.23175583     0.14700
C615        C  0.77127942  0.27852239  0.31570886    -0.14900
C616        C  0.76614019  0.24465958  0.29384223    -0.30000
H617        H  0.74844103  0.28809863  0.33697782     0.14200
H618        H  0.78960721  0.23628767  0.27284053     0.14700
C619        C  0.75154215  0.15476226  0.21166965    -0.14900
C620        C  0.75803240  0.17269427  0.17640859    -0.30000
H621        H  0.77542172  0.13686268  0.22542995     0.14200
H622        H  0.73403467  0.19135761  0.16399139     0.14700
C623        C  0.90843005  0.14209732  0.07742076    -0.11700
C624        C  0.88741348  0.16276360  0.09870090    -0.13300
C625        C  0.89479244  0.88480974  0.83021834    -0.11700
C626        C  0.91480825  0.90520415  0.85273180    -0.13300
C627        C  0.75487229  0.88899432  0.71840308    -0.14900
C628        C  0.79551155  0.89037466  0.71668158    -0.30000
H629        H  0.74041634  0.88495529  0.74715310     0.14200
H630        H  0.81003317  0.89163500  0.68771530     0.14700
C631        C  0.77769500  0.77167383  0.59712360    -0.14900
C632        C  0.78160907  0.80948695  0.61156634    -0.30000
H633        H  0.74880050  0.76219578  0.58463473     0.14200
H634        H  0.80963322  0.81684973  0.62708536     0.14700
C635        C  0.85005297  0.74994054  0.71388415    -0.14900
C636        C  0.87529341  0.78133356  0.72007901    -0.30000
H637        H  0.82617328  0.74451492  0.73546853     0.14200
H638        H  0.89939578  0.78817963  0.69917752     0.14700
C639        C  0.88006516  0.65852879  0.59694491    -0.11700
C640        C  0.90242620  0.63731806  0.57759259    -0.13300
C641        C  0.67205005  0.76980429  0.73007323    -0.14900
C642        C  0.68679673  0.77253999  0.69303376    -0.30000
H643        H  0.65504477  0.79481959  0.74302735     0.14200
H644        H  0.70465797  0.74744850  0.68150556     0.14700
C645        C  0.76220329  0.66244477  0.72235905    -0.14900
C646        C  0.75605038  0.66826551  0.68337413    -0.30000
H647        H  0.79294400  0.65773795  0.73308558     0.14200
H648        H  0.72591076  0.67683538  0.67338545     0.14700
C649        C  0.77363083  0.75693054  0.81835861    -0.14900
C650        C  0.77192780  0.79635487  0.80846074    -0.30000
H651        H  0.80179009  0.74361239  0.82891119     0.14200
H652        H  0.74401695  0.80782451  0.79534768     0.14700
C653        C  0.91018231  0.90389762  0.07639624    -0.11700
C654        C  0.89010078  0.88460422  0.09987761    -0.13300
C655        C  0.76209174  0.77085439  0.12262754    -0.14100
C656        C  0.79007731  0.78086596  0.15002779    -0.30000
H657        H  0.75917580  0.78786943  0.09511557     0.14200
H658        H  0.79304404  0.76189257  0.17578164     0.14700
C659        C  0.74988912  0.67775183  0.21920158    -0.14900
C660        C  0.79013125  0.68139903  0.21405722    -0.30000
H661        H  0.73763360  0.67558706  0.24909406     0.14200
H662        H  0.80151265  0.68748986  0.18434094     0.14700
C663        C  0.89318849  0.77002103  0.22716219    -0.14900
C664        C  0.88444681  0.80976320  0.23128129    -0.30000
H665        H  0.90187214  0.75850333  0.19809367     0.14200
H666        H  0.87252958  0.81961180  0.25986946     0.14700
C667        C  0.90378793  0.63745624  0.35249810    -0.11700
C668        C  0.88434710  0.65966661  0.33097855    -0.13300
C669        C  0.67150205  0.81490138  0.19390988    -0.14900
C670        C  0.65352255  0.77845048  0.19792768    -0.30000
H671        H  0.69074634  0.81958818  0.16806951     0.14200
H672        H  0.63599096  0.77159910  0.22440099     0.14700
C673        C  0.76697918  0.91720226  0.23737326    -0.14900
C674        C  0.79880730  0.91607646  0.21179293    -0.30000
H675        H  0.76391222  0.94696378  0.25136285     0.14200
H676        H  0.81423767  0.94530260  0.20965891     0.14700
C677        C  0.75409595  0.78252978  0.28435571    -0.14900
C678        C  0.78475854  0.77576472  0.30995492    -0.30000
H679        H  0.74937809  0.76115404  0.26039832     0.14200
H680        H  0.79005904  0.79584593  0.33510145     0.14700
C681        C  0.13540664  0.90637429  0.85679622    -0.11700
C682        C  0.15569657  0.88556062  0.83488229    -0.13300
C683        C  0.18393234  0.74794452  0.72018262    -0.14900
C684        C  0.16320164  0.78296555  0.72293412    -0.30000
H685        H  0.20548055  0.74100082  0.74375733     0.14200
H686        H  0.14263609  0.79233521  0.69942465     0.14700
C687        C  0.15657695  0.66067062  0.59865365    -0.11700
C688        C  0.13470445  0.63986511  0.57826246    -0.13300
C689        C  0.26824632  0.80047505  0.63614835    -0.14900
C690        C  0.26584735  0.76727821  0.61302354    -0.30000
H691        H  0.24466521  0.80509210  0.65826233     0.14200
H692        H  0.28914216  0.76051572  0.59121433     0.14700
C693        C  0.29110806  0.89136628  0.72464120    -0.14900
C694        C  0.25089790  0.89030419  0.71831654    -0.30000
H695        H  0.30214456  0.88927586  0.75504859     0.14200
H696        H  0.24006683  0.88803966  0.68784041     0.14700
C697        C  0.27338875  0.65627467  0.69422115    -0.14900
C698        C  0.26810484  0.65727318  0.73378888    -0.30000
H699        H  0.30405946  0.65597079  0.68248016     0.14200
H700        H  0.23758698  0.66166035  0.74517488     0.14700
C701        C  0.27813277  0.76027723  0.82213941    -0.14900
C702        C  0.27542456  0.79552340  0.80227926    -0.30000
H703        H  0.25462407  0.75108303  0.84282394     0.14200
H704        H  0.29913097  0.80253252  0.78091993     0.14700
C705        C  0.36009872  0.74913876  0.71309480    -0.14900
C706        C  0.38005787  0.78460942  0.71395166    -0.30000
H707        H  0.33922660  0.74369200  0.68855606     0.14200
H708        H  0.39954519  0.79246264  0.73886651     0.14700
C709        C  0.90804329  0.14208396  0.85431442    -0.11700
C710        C  0.88637955  0.16248048  0.83321057    -0.13300
C711        C  0.77142821  0.18935494  0.69452743    -0.14900
C712        C  0.77552671  0.16944550  0.72910104    -0.30000
H713        H  0.79407425  0.21201846  0.68699664     0.14200
H714        H  0.75323813  0.14715353  0.73849713     0.14700
C715        C  0.75259917  0.30797135  0.61923616    -0.14900
C716        C  0.74904191  0.27116752  0.60236315    -0.30000
H717        H  0.72817587  0.31837583  0.63827990     0.14200
H718        H  0.77340561  0.25913873  0.58410274     0.14700
C719        C  0.86239303  0.27446797  0.69437054    -0.14900
C720        C  0.86667238  0.27578479  0.73405551    -0.30000
H721        H  0.85781386  0.24535130  0.67975714     0.14200
H722        H  0.86905647  0.30510298  0.74884259     0.14700
C723        C  0.87886292  0.39086558  0.59823476    -0.11700
C724        C  0.90085201  0.41064949  0.57712221    -0.13300
C725        C  0.66214643  0.30120214  0.70691461    -0.14900
C726        C  0.65470197  0.26108770  0.70671710    -0.30000
H727        H  0.67182311  0.31563379  0.67953810     0.14200
H728        H  0.64635267  0.24583878  0.73416413     0.14700
C729        C  0.73564352  0.26388113  0.81316687    -0.14900
C730        C  0.77372673  0.26511399  0.82708303    -0.30000
H731        H  0.72620885  0.23693631  0.79677658     0.14200
H732        H  0.78506102  0.29245421  0.84150310     0.14700
C733        C  0.77665823  0.36863748  0.74708044    -0.14900
C734        C  0.78184597  0.38943793  0.71328002    -0.30000
H735        H  0.79935399  0.34596448  0.75481984     0.14200
H736        H  0.75922472  0.41134273  0.70363285     0.14700
C737        C  0.62990135  0.12963851  0.34546594    -0.11700
C738        C  0.64997622  0.14985907  0.32300212    -0.13300
C739        C  0.65331700  0.89254390  0.60594349    -0.11700
C740        C  0.63045559  0.91072957  0.58429923    -0.13300
C741        C  0.62824746  0.90450073  0.34739214    -0.11700
C742        C  0.64991413  0.88685933  0.32412099    -0.13300
C743        C  0.38732415  0.89247293  0.60840766    -0.11700
C744        C  0.40734485  0.91168543  0.58511860    -0.13300
C745        C  0.65520479  0.15075063  0.60327446    -0.11700
C746        C  0.63500952  0.12894805  0.58215183    -0.13300
C747        C  0.38545291  0.89481868  0.32358935    -0.11700
C748        C  0.40628677  0.91453971  0.34575770    -0.13300
C749        C  0.27375128  0.75853582  0.32597457    -0.14900
C750        C  0.30858435  0.76457869  0.30636774    -0.30000
H751        H  0.26186629  0.78196968  0.34557427     0.14200
H752        H  0.31894708  0.74107485  0.28608397     0.14700
C753        C  0.13868517  0.63580514  0.35586875    -0.11700
C754        C  0.16102925  0.65569803  0.33510634    -0.13300
C755        C  0.16574979  0.77442453  0.20497893    -0.14900
C756        C  0.18356217  0.77221971  0.24081052    -0.30000
H757        H  0.14817054  0.74905592  0.19348917     0.14200
H758        H  0.20171102  0.79786222  0.25067247     0.14700
C759        C  0.25881792  0.87520151  0.24145835    -0.14900
C760        C  0.25758772  0.88326290  0.20240354    -0.30000
H761        H  0.23209193  0.86247316  0.25550848     0.14200
H762        H  0.28479541  0.89394927  0.18753284     0.14700
C763        C  0.13140570  0.90217132  0.07530408    -0.11700
C764        C  0.15106255  0.88009547  0.09653858    -0.13300
C765        C  0.38994703  0.77303618  0.20309759    -0.14900
C766        C  0.37040211  0.80870614  0.20095463    -0.30000
H767        H  0.40808142  0.76588459  0.22917261     0.14200
H768        H  0.35013223  0.81355205  0.17584318     0.14700
C769        C  0.30725485  0.66585652  0.23033399    -0.14900
C770        C  0.26714795  0.65949694  0.22757064    -0.30000
H771        H  0.31981856  0.67424699  0.25906537     0.14200
H772        H  0.25363764  0.65388666  0.19857971     0.14700
C773        C  0.27114226  0.74672114  0.13727866    -0.14900
C774        C  0.26582618  0.78095543  0.11628521    -0.30000
H775        H  0.24834092  0.73837956  0.15912177     0.14200
H776        H  0.28822444  0.79073876  0.09467958     0.14700
C777        C  0.63249317  0.41369585  0.08531565    -0.11700
C778        C  0.65286965  0.39083143  0.10483388    -0.13300
C779        C  0.63664901  0.63754792  0.85208667    -0.11700
C780        C  0.65836833  0.65779187  0.83113843    -0.13300
C781        C  0.63480983  0.64032725  0.08073416    -0.11700
C782        C  0.65549691  0.66147581  0.10199084    -0.13300
C783        C  0.40989369  0.63307836  0.84713956    -0.11700
C784        C  0.38768678  0.65330141  0.82669895    -0.13300
C785        C  0.65081120  0.39048549  0.82778118    -0.11700
C786        C  0.63138711  0.41210215  0.84947103    -0.13300
C787        C  0.40996525  0.63673780  0.08262570    -0.11700
C788        C  0.39096484  0.65731823  0.10563522    -0.13300
C789        C  0.41232810  0.41124477  0.84817209    -0.11700
C790        C  0.39276378  0.39233899  0.82425735    -0.13300
C791        C  0.25156913  0.37488913  0.71735852    -0.14900
C792        C  0.28893993  0.39039455  0.71462825    -0.30000
H793        H  0.24359698  0.35894438  0.74460298     0.14200
H794        H  0.29931869  0.40339021  0.68676045     0.14700
C795        C  0.13778534  0.41094193  0.57864274    -0.11700
C796        C  0.15762782  0.38971926  0.60052626    -0.13300
C797        C  0.29996195  0.27553207  0.79178388    -0.14900
C798        C  0.26350650  0.27298842  0.80920867    -0.30000
H799        H  0.31074123  0.24972909  0.77487887     0.14200
H800        H  0.25169052  0.29825432  0.82651923     0.14700
C801        C  0.17340080  0.24556839  0.70934985    -0.14900
C802        C  0.15799094  0.28329009  0.70852078    -0.30000
H803        H  0.18997092  0.23512283  0.68329778     0.14200
H804        H  0.14325483  0.29592115  0.73463869     0.14700
C805        C  0.13723139  0.14413976  0.85669227    -0.11700
C806        C  0.15885937  0.16386457  0.83502350    -0.13300
C807        C  0.39983398  0.26180834  0.71056469    -0.14900
C808        C  0.39236541  0.30135105  0.70418765    -0.30000
H809        H  0.40560623  0.25172895  0.74082148     0.14200
H810        H  0.38261185  0.31030730  0.67455262     0.14700
C811        C  0.29491295  0.27449705  0.63721268    -0.14900
C812        C  0.25893343  0.27609320  0.61874238    -0.30000
H813        H  0.30359177  0.30036950  0.65534099     0.14200
H814        H  0.24835194  0.25097028  0.60047677     0.14700
C815        C  0.30568944  0.16842617  0.72956567    -0.14900
C816        C  0.26666323  0.15727769  0.72916916    -0.30000
H817        H  0.31752925  0.18163701  0.75683902     0.14200
H818        H  0.25319028  0.14669995  0.70152164     0.14700
C819        C  0.40738853  0.13575140  0.58139385    -0.11700
C820        C  0.38722837  0.15632603  0.60353883    -0.13300
C821        C  0.13842745  0.40635381  0.35872657    -0.11700
C822        C  0.15950605  0.38447962  0.33852179    -0.13300
C823        C  0.16929929  0.28501245  0.22357694    -0.14900
C824        C  0.18219660  0.24620738  0.22645936    -0.30000
H825        H  0.15903338  0.29665531  0.19507445     0.14200
H826        H  0.19349522  0.23538576  0.25482007     0.14700
C827        C  0.15455221  0.16349114  0.10331982    -0.11700
C828        C  0.13299410  0.14380105  0.08133218    -0.13300
C829        C  0.27748769  0.25116784  0.28361499    -0.14900
C830        C  0.26924945  0.27932928  0.31144790    -0.30000
H831        H  0.25794744  0.24815936  0.25843892     0.14200
H832        H  0.28788246  0.28234640  0.33793484     0.14700
C833        C  0.32029275  0.15425204  0.19193466    -0.14900
C834        C  0.28703532  0.15282348  0.16800368    -0.30000
H835        H  0.34525816  0.13502657  0.18223469     0.14200
H836        H  0.29102766  0.13282497  0.14245472     0.14700
C837        C  0.40524885  0.13346351  0.34922518    -0.11700
C838        C  0.38569350  0.15241465  0.32513380    -0.13300
C839        C  0.39999323  0.29693961  0.22178878    -0.14900
C840        C  0.40367786  0.25614417  0.21914640    -0.30000
H841        H  0.42821290  0.31239664  0.22912598     0.14200
H842        H  0.43499448  0.24574250  0.21827842     0.14700
C843        C  0.27476081  0.37243365  0.19849198    -0.14900
C844        C  0.26798608  0.38676606  0.23511059    -0.30000
H845        H  0.25083782  0.35530800  0.18375025     0.14200
H846        H  0.29157693  0.40314444  0.25103760     0.14700
C847        C  0.30282409  0.26745560  0.13321861    -0.14900
C848        C  0.26380129  0.26899836  0.12218107    -0.30000
H849        H  0.31479928  0.23935577  0.14541538     0.14200
H850        H  0.25081365  0.29690300  0.11046997     0.14700
C851        C  0.40830813  0.41140649  0.08285099    -0.11700
C852        C  0.38909816  0.39045562  0.10537276    -0.13300
loop_ 
_geom_bond_atom_site_label_1 
_geom_bond_atom_site_label_2 
_geom_bond_distance 
_geom_bond_site_symmetry_2 
_ccdc_geom_bond_type 
C1            C2   1.532       .  S
C1            C7   1.543       .  S
C1            C5   1.534       .  S
C1          C852   1.466       .  S
C2            H9   1.086       .  S
C2            C3   1.361       .  D
C3            C4   1.538       .  S
C3          C843   1.468       .  S
C4            C8   1.532       .  S
C4            C6   1.533       .  S
C4           H10   1.102       .  S
C5           H11   1.087       .  S
C5            C6   1.367       .  D
C6          C839   1.488       .  S
C7           H12   1.086       .  S
C7            C8   1.366       .  D
C8          C847   1.468       .  S
C13          C14   1.533       .  S
C13          C19   1.531       .  S
C13          C17   1.538       .  S
C13         C838   1.472       .  S
C14          H21   1.086       .  S
C14          C15   1.364       .  D
C15          C16   1.544       .  S
C15         C829   1.461       .  S
C16          C20   1.539       .  S
C16          C18   1.539       .  S
C16          H22   1.089       .  S
C17          H23   1.087       .  S
C17          C18   1.371       .  D
C18         C833   1.490       .  S
C19          H24   1.087       .  S
C19          C20   1.365       .  D
C20         C840   1.491       .  S
C25          C26   1.529       .  S
C25          C31   1.539       .  S
C25          C29   1.542       .  S
C25         C827   1.478       .  S
C26          H33   1.086       .  S
C26          C27   1.362       .  D
C27          C28   1.551       .  S
C27         C824   1.482       .  S
C28          C32   1.540       .  S
C28          C30   1.536       .  S
C28          H34   1.092       .  S
C29          H35   1.086       .  S
C29          C30   1.366       .  D
C30         C848   1.478       .  S
C31          H36   1.087       .  S
C31          C32   1.375       .  D
C32         C834   1.506       .  S
C37          C38   1.550       .  S
C37          C43   1.537       .  S
C37          C41   1.549       .  S
C37         C822   1.472       .  S
C38          H45   1.086       .  S
C38          C39   1.366       .  D
C39          C40   1.522       .  S
C39         C823   1.484       .  S
C40          C44   1.530       .  S
C40          C42   1.537       .  S
C40          H46   1.106       .  S
C41          H47   1.086       .  S
C41          C42   1.371       .  D
C42         C830   1.489       .  S
C43          H48   1.086       .  S
C43          C44   1.358       .  D
C44         C844   1.476       .  S
C49          C50   1.545       .  S
C49          C55   1.548       .  S
C49          C53   1.543       .  S
C49         C820   1.466       .  S
C50          H57   1.086       .  S
C50          C51   1.360       .  D
C51          C52   1.524       .  S
C51         C807   1.474       .  S
C52          C56   1.529       .  S
C52          C54   1.527       .  S
C52          H58   1.100       .  S
C53          H59   1.086       .  S
C53          C54   1.364       .  D
C54         C815   1.477       .  S
C55          H60   1.086       .  S
C55          C56   1.368       .  D
C56         C811   1.480       .  S
C61          C62   1.546       .  S
C61          C67   1.542       .  S
C61          C65   1.543       .  S
C61         C806   1.474       .  S
C62          H69   1.086       .  S
C62          C63   1.364       .  D
C63          C64   1.528       .  S
C63         C816   1.480       .  S
C64          C68   1.531       .  S
C64          C66   1.538       .  S
C64          H70   1.109       .  S
C65          H71   1.086       .  S
C65          C66   1.366       .  D
C66         C798   1.488       .  S
C67          H72   1.086       .  S
C67          C68   1.364       .  D
C68         C801   1.471       .  S
C73          C74   1.542       .  S
C73          C79   1.545       .  S
C73          C77   1.544       .  S
C73         C796   1.469       .  S
C74          H81   1.086       .  S
C74          C75   1.363       .  D
C75          C76   1.527       .  S
C75         C791   1.472       .  S
C76          C80   1.530       .  S
C76          C78   1.534       .  S
C76          H82   1.110       .  S
C77          H83   1.086       .  S
C77          C78   1.365       .  D
C78         C812   1.486       .  S
C79          H84   1.086       .  S
C79          C80   1.365       .  D
C80         C802   1.478       .  S
C85          C86   1.542       .  S
C85          C91   1.545       .  S
C85          C89   1.541       .  S
C85         C790   1.461       .  S
C86          H93   1.086       .  S
C86          C87   1.362       .  D
C87          C88   1.529       .  S
C87         C808   1.472       .  S
C88          C92   1.529       .  S
C88          C90   1.528       .  S
C88          H94   1.102       .  S
C89          H95   1.086       .  S
C89          C90   1.362       .  D
C90         C792   1.475       .  S
C91          H96   1.086       .  S
C91          C92   1.365       .  D
C92         C797   1.477       .  S
C97         N115   1.348       .  A
C97         C134   1.453       .  S
C97         C851   1.434       .  S
N98         N115   1.326       .  A
N98         N120   1.320       .  A
N98        Co135   2.086   1_554  S
C99         N124   1.340       .  A
C99         C137   1.454       .  S
C99         H144   1.082       .  S
H100        C141   1.082       .  S
C101        N125   1.341       .  A
C101        C105   1.457       .  S
C101        H130   1.082       .  S
Co102       N120   2.079   1_556  S
Co102       N110   2.079   1_556  S
Co102       N142   2.077       .  S
Co102       N118   2.079       .  S
Co102      Cl146   2.449       .  S
N103        C141   1.340       .  A
N103        N110   1.320       .  A
N103       Co104   2.081   1_554  S
Co104       N107   2.083   1_556  S
Co104       N124   2.081       .  S
Co104       N111   2.085       .  S
Co104      Cl146   2.450       .  S
C105        N143   1.347       .  A
C105        C781   1.437       .  S
N106        N113   1.321       .  A
N106        N136   1.324       .  A
N106       Co139   2.083   1_554  S
N107        N125   1.321       .  A
N107        N143   1.325       .  A
N108        C137   1.346       .  A
N108        N118   1.324       .  A
H109        C134   1.082       .  S
N110        N131   1.324       .  A
N111        N129   1.320       .  A
N111        N116   1.325       .  A
C112        N116   1.348       .  A
C112        C140   1.455       .  S
C112        C779   1.436       .  S
N113        C128   1.340       .  A
N113       Co135   2.079   1_554  S
C114        N142   1.340       .  A
C114        C117   1.453       .  S
C114        H148   1.082       .  S
C117        N138   1.346       .  A
C117        C789   1.430       .  S
N118        N124   1.321       .  A
N119        C145   1.339       .  A
N119        N121   1.321       .  A
N119       Co135   2.079       .  S
N120        C134   1.339       .  A
N121        N149   1.325       .  A
N121       Co139   2.087       .  S
H122        C145   1.082       .  S
H123        C140   1.082       .  S
N125       Co139   2.088   1_554  S
N126        N138   1.324       .  A
N126        N142   1.320       .  A
N126       Co135   2.079       .  S
C127        N131   1.347       .  A
C127        C141   1.454       .  S
C127        C777   1.431       .  S
C128        C147   1.453       .  S
C128        H132   1.082       .  S
N129        C140   1.341       .  A
N129       Co139   2.082       .  S
C133        N149   1.348       .  A
C133        C145   1.453       .  S
C133        C783   1.433       .  S
Co135      Cl146   2.450       .  S
N136        C147   1.347       .  A
C137        C786   1.430       .  S
Co139      Cl146   2.449       .  S
C147        C787   1.431       .  S
C150        C151   1.540       .  S
C150        C156   1.547       .  S
C150        C154   1.544       .  S
C150        C788   1.463       .  S
C151        H158   1.086       .  S
C151        C152   1.361       .  D
C152        C153   1.532       .  S
C152        C765   1.475       .  S
C153        C157   1.524       .  S
C153        C155   1.525       .  S
C153        H159   1.102       .  S
C154        H160   1.086       .  S
C154        C155   1.363       .  D
C155        C769   1.474       .  S
C156        H161   1.086       .  S
C156        C157   1.366       .  D
C157        C773   1.471       .  S
C162        C163   1.541       .  S
C162        C168   1.539       .  S
C162        C166   1.546       .  S
C162        C764   1.469       .  S
C163        H170   1.086       .  S
C163        C164   1.365       .  D
C164        C165   1.539       .  S
C164        C774   1.483       .  S
C165        C169   1.532       .  S
C165        C167   1.533       .  S
C165        H171   1.106       .  S
C166        H172   1.086       .  S
C166        C167   1.367       .  D
C167        C755   1.486       .  S
C168        H173   1.086       .  S
C168        C169   1.361       .  D
C169        C760   1.478       .  S
C174        C175   1.542       .  S
C174        C180   1.544       .  S
C174        C178   1.546       .  S
C174        C754   1.472       .  S
C175        H182   1.086       .  S
C175        C176   1.363       .  D
C176        C177   1.529       .  S
C176        C770   1.478       .  S
C177        C181   1.530       .  S
C177        C179   1.532       .  S
C177        H183   1.106       .  S
C178        H184   1.086       .  S
C178        C179   1.365       .  D
C179        C749   1.481       .  S
C180        H185   1.086       .  S
C180        C181   1.366       .  D
C181        C756   1.475       .  S
C186        C187   1.542       .  S
C186        C192   1.542       .  S
C186        C190   1.544       .  S
C186        C747   1.461       .  S
C187        H194   1.086       .  S
C187        C188   1.363       .  D
C188        C189   1.526       .  S
C188        C766   1.468       .  S
C189        C193   1.528       .  S
C189        C191   1.524       .  S
C189        H195   1.103       .  S
C190        H196   1.086       .  S
C190        C191   1.365       .  D
C191        C759   1.473       .  S
C192        H197   1.086       .  S
C192        C193   1.362       .  D
C193        C750   1.470       .  S
C198        N216   1.348       .  A
C198        C235   1.450       .  S
C198        C748   1.429       .  S
N199        N216   1.325       .  A
N199        N221   1.321       .  A
N199       Co236   2.087       .  S
C200        N225   1.342       .  A
C200        C238   1.457       .  S
C200        H245   1.082       .  S
H201        C242   1.082       .  S
C202        N226   1.340       .  A
C202        C206   1.454       .  S
C202        H231   1.082       .  S
Co203       N221   2.073   1_545  S
Co203       N211   2.081       .  S
Co203       N243   2.078   1_545  S
Co203       N219   2.078       .  S
Co203      Cl247   2.447       .  S
N204        C242   1.343       .  A
N204        N211   1.321       .  A
N204       Co205   2.093       .  S
Co205       N208   2.090       .  S
Co205       N225   2.090       .  S
Co205       N212   2.094       .  S
Co205      Cl247   2.455       .  S
C206        N244   1.349       .  A
C206        C737   1.435       .  S
N207        N214   1.320       .  A
N207        N237   1.326       .  A
N207       Co240   2.088   1_565  S
N208        N226   1.322       .  A
N208        N244   1.325       .  A
N209        C238   1.346       .  A
N209        N219   1.324       .  A
H210        C235   1.082       .  S
N211        N232   1.325       .  A
N212        N230   1.321       .  A
N212        N217   1.326       .  A
C213        N217   1.351       .  A
C213        C241   1.453       .  S
C213        C746   1.439       .  S
N214        C229   1.342       .  A
N214       Co236   2.084       .  S
C215        N243   1.339       .  A
C215        C218   1.452       .  S
C215        H249   1.082       .  S
C218        N239   1.348       .  A
C218        C744   1.433       .  S
N219        N225   1.321       .  A
N220        C246   1.343       .  A
N220        N222   1.321       .  A
N220       Co236   2.089       .  S
N221        C235   1.338       .  A
N222        N250   1.324       .  A
N222       Co240   2.082   1_565  S
H223        C246   1.082       .  S
H224        C241   1.082       .  S
N226       Co240   2.081       .  S
N227        N239   1.325       .  A
N227        N243   1.320       .  A
N227       Co236   2.085       .  S
C228        N232   1.346       .  A
C228        C242   1.459       .  S
C228        C837   1.440       .  S
C229        C248   1.455       .  S
C229        H233   1.082       .  S
N230        C241   1.341       .  A
N230       Co240   2.080       .  S
C234        N250   1.346       .  A
C234        C246   1.458       .  S
C234        C740   1.436       .  S
Co236      Cl247   2.457   1_565  S
N237        C248   1.349       .  A
C238        C819   1.435       .  S
Co240      Cl247   2.448       .  S
C248        C741   1.439       .  S
C251        C252   1.542       .  S
C251        C257   1.546       .  S
C251        C255   1.541       .  S
C251        C785   1.462       .  S
C252        H259   1.086       .  S
C252        C253   1.363       .  D
C253        C254   1.529       .  S
C253        C733   1.470       .  S
C254        C258   1.522       .  S
C254        C256   1.528       .  S
C254        H260   1.105       .  S
C255        H261   1.086       .  S
C255        C256   1.362       .  D
C256        C725   1.471       .  S
C257        H262   1.086       .  S
C257        C258   1.365       .  D
C258        C729   1.470       .  S
C263        C264   1.544       .  S
C263        C269   1.543       .  S
C263        C267   1.542       .  S
C263        C723   1.469       .  S
C264        H271   1.086       .  S
C264        C265   1.365       .  D
C265        C266   1.528       .  S
C265        C719   1.479       .  S
C266        C270   1.533       .  S
C266        C268   1.531       .  S
C266        H272   1.107       .  S
C267        H273   1.086       .  S
C267        C268   1.364       .  D
C268        C715   1.472       .  S
C269        H274   1.086       .  S
C269        C270   1.364       .  D
C270        C734   1.479       .  S
C275        C276   1.546       .  S
C275        C281   1.540       .  S
C275        C279   1.546       .  S
C275        C745   1.470       .  S
C276        H283   1.086       .  S
C276        C277   1.364       .  D
C277        C278   1.529       .  S
C277        C716   1.482       .  S
C278        C282   1.529       .  S
C278        C280   1.530       .  S
C278        H284   1.106       .  S
C279        H285   1.086       .  S
C279        C280   1.368       .  D
C280        C711   1.475       .  S
C281        H286   1.086       .  S
C281        C282   1.362       .  D
C282        C726   1.477       .  S
C287        C288   1.544       .  S
C287        C293   1.547       .  S
C287        C291   1.540       .  S
C287        C710   1.474       .  S
C288        H295   1.086       .  S
C288        C289   1.366       .  D
C289        C290   1.530       .  S
C289        C720   1.480       .  S
C290        C294   1.534       .  S
C290        C292   1.536       .  S
C290        H296   1.108       .  S
C291        H297   1.086       .  S
C291        C292   1.363       .  D
C292        C730   1.478       .  S
C293        H298   1.086       .  S
C293        C294   1.367       .  D
C294        C712   1.486       .  S
C299        C300   1.544       .  S
C299        C305   1.545       .  S
C299        C303   1.544       .  S
C299        C784   1.465       .  S
C300        H307   1.086       .  S
C300        C301   1.363       .  D
C301        C302   1.531       .  S
C301        C701   1.483       .  S
C302        C306   1.525       .  S
C302        C304   1.526       .  S
C302        H308   1.102       .  S
C303        H309   1.086       .  S
C303        C304   1.363       .  D
C304        C698   1.473       .  S
C305        H310   1.086       .  S
C305        C306   1.364       .  D
C306        C705   1.471       .  S
C311        C312   1.548       .  S
C311        C317   1.541       .  S
C311        C315   1.545       .  S
C311        C743   1.465       .  S
C312        H319   1.086       .  S
C312        C313   1.366       .  D
C313        C314   1.526       .  S
C313        C689   1.475       .  S
C314        C318   1.531       .  S
C314        C316   1.526       .  S
C314        H320   1.103       .  S
C315        H321   1.086       .  S
C315        C316   1.364       .  D
C316        C693   1.476       .  S
C317        H322   1.086       .  S
C317        C318   1.361       .  D
C318        C706   1.478       .  S
C323        C324   1.550       .  S
C323        C329   1.543       .  S
C323        C327   1.543       .  S
C323        C687   1.468       .  S
C324        H331   1.086       .  S
C324        C325   1.368       .  D
C325        C326   1.525       .  S
C325        C683   1.477       .  S
C326        C330   1.526       .  S
C326        C328   1.532       .  S
C326        H332   1.102       .  S
C327        H333   1.086       .  S
C327        C328   1.364       .  D
C328        C690   1.483       .  S
C329        H334   1.086       .  S
C329        C330   1.361       .  D
C330        C697   1.475       .  S
C335        C336   1.545       .  S
C335        C341   1.545       .  S
C335        C339   1.548       .  S
C335        C682   1.470       .  S
C336        H343   1.086       .  S
C336        C337   1.364       .  D
C337        C338   1.532       .  S
C337        C684   1.485       .  S
C338        C342   1.527       .  S
C338        C340   1.527       .  S
C338        H344   1.103       .  S
C339        H345   1.086       .  S
C339        C340   1.367       .  D
C340        C702   1.475       .  S
C341        H346   1.086       .  S
C341        C342   1.363       .  D
C342        C694   1.476       .  S
C347        C348   1.539       .  S
C347        C353   1.535       .  S
C347        C351   1.529       .  S
C347        C742   1.471       .  S
C348        H355   1.086       .  S
C348        C349   1.367       .  D
C349        C350   1.546       .  S
C349        C677   1.474       .  S
C350        C354   1.535       .  S
C350        C352   1.539       .  S
C350        H356   1.094       .  S
C351        H357   1.087       .  S
C351        C352   1.371       .  D
C352        C673   1.502       .  S
C353        H358   1.086       .  S
C353        C354   1.362       .  D
C354        C669   1.474       .  S
C359        C360   1.545       .  S
C359        C365   1.547       .  S
C359        C363   1.550       .  S
C359        C668   1.477       .  S
C360        H367   1.086       .  S
C360        C361   1.363       .  D
C361        C362   1.528       .  S
C361        C663   1.483       .  S
C362        C366   1.528       .  S
C362        C364   1.531       .  S
C362        H368   1.097       .  S
C363        H369   1.086       .  S
C363        C364   1.369       .  D
C364        C678   1.489       .  S
C365        H370   1.086       .  S
C365        C366   1.366       .  D
C366        C660   1.480       .  S
C371        C372   1.544       .  S
C371        C377   1.550       .  S
C371        C375   1.540       .  S
C371        C782   1.469       .  S
C372        H379   1.086       .  S
C372        C373   1.364       .  D
C373        C374   1.528       .  S
C373        C659   1.482       .  S
C374        C378   1.534       .  S
C374        C376   1.529       .  S
C374        H380   1.101       .  S
C375        H381   1.086       .  S
C375        C376   1.360       .  D
C376        C670   1.478       .  S
C377        H382   1.086       .  S
C377        C378   1.369       .  D
C378        C655   1.490       .  S
C383        C384   1.545       .  S
C383        C389   1.531       .  S
C383        C387   1.535       .  S
C383        C654   1.477       .  S
C384        H391   1.086       .  S
C384        C385   1.365       .  D
C385        C386   1.529       .  S
C385        C664   1.481       .  S
C386        C390   1.539       .  S
C386        C388   1.549       .  S
C386        H392   1.099       .  S
C387        H393   1.086       .  S
C387        C388   1.367       .  D
C388        C656   1.472       .  S
C389        H394   1.087       .  S
C389        C390   1.369       .  D
C390        C674   1.497       .  S
C395        C396   1.543       .  S
C395        C401   1.540       .  S
C395        C399   1.540       .  S
C395        C780   1.468       .  S
C396        H403   1.086       .  S
C396        C397   1.365       .  D
C397        C398   1.535       .  S
C397        C641   1.482       .  S
C398        C402   1.537       .  S
C398        C400   1.534       .  S
C398        H404   1.109       .  S
C399        H405   1.086       .  S
C399        C400   1.363       .  D
C400        C645   1.475       .  S
C401        H406   1.086       .  S
C401        C402   1.363       .  D
C402        C649   1.478       .  S
C407        C408   1.544       .  S
C407        C413   1.546       .  S
C407        C411   1.540       .  S
C407        C639   1.467       .  S
C408        H415   1.086       .  S
C408        C409   1.364       .  D
C409        C410   1.524       .  S
C409        C646   1.473       .  S
C410        C414   1.529       .  S
C410        C412   1.531       .  S
C410        H416   1.106       .  S
C411        H417   1.086       .  S
C411        C412   1.362       .  D
C412        C631   1.477       .  S
C413        H418   1.086       .  S
C413        C414   1.366       .  D
C414        C635   1.474       .  S
C419        C420   1.544       .  S
C419        C425   1.547       .  S
C419        C423   1.545       .  S
C419        C739   1.468       .  S
C420        H427   1.086       .  S
C420        C421   1.364       .  D
C421        C422   1.526       .  S
C421        C642   1.473       .  S
C422        C426   1.521       .  S
C422        C424   1.527       .  S
C422        H428   1.096       .  S
C423        H429   1.086       .  S
C423        C424   1.365       .  D
C424        C627   1.476       .  S
C425        H430   1.086       .  S
C425        C426   1.363       .  D
C426        C632   1.473       .  S
C431        C432   1.546       .  S
C431        C437   1.544       .  S
C431        C435   1.545       .  S
C431        C625   1.468       .  S
C432        H439   1.086       .  S
C432        C433   1.364       .  D
C433        C434   1.518       .  S
C433        C650   1.472       .  S
C434        C438   1.527       .  S
C434        C436   1.534       .  S
C434        H440   1.097       .  S
C435        H441   1.086       .  S
C435        C436   1.366       .  D
C436        C636   1.485       .  S
C437        H442   1.086       .  S
C437        C438   1.363       .  D
C438        C628   1.476       .  S
C443        N461   1.349       .  A
C443        C480   1.453       .  S
C443        C623   1.435       .  S
N444        N461   1.326       .  A
N444        N466   1.321       .  A
N444       Co481   2.090   1_554  S
C445        N470   1.342       .  A
C445        C483   1.457       .  S
C445        H490   1.082   1_554  S
H446        C487   1.082       .  S
C447        N471   1.341       .  A
C447        C451   1.457       .  S
C447        H476   1.082       .  S
Co448       N466   2.080   1_455  S
Co448       N456   2.094       .  S
Co448       N488   2.089   1_445  S
Co448       N464   2.082   1_545  S
Co448      Cl492   2.450   1_554  S
N449        C487   1.343       .  A
N449        N456   1.321       .  A
N449       Co450   2.093   1_554  S
Co450       N453   2.093       .  S
Co450       N470   2.089   1_546  S
Co450       N457   2.092   1_545  S
Co450      Cl492   2.458       .  S
C451        N489   1.350       .  A
C451        C805   1.442       .  S
N452        N459   1.322       .  A
N452        N482   1.326       .  A
N452       Co485   2.089   1_655  S
N453        N471   1.321       .  A
N453        N489   1.327       .  A
N454        C483   1.347       .  A
N454        N464   1.325       .  A
H455        C480   1.082       .  S
N456        N477   1.327       .  A
N457        N475   1.321       .  A
N457        N462   1.327       .  A
C458        N462   1.350       .  A
C458        C486   1.454       .  S
C458        C681   1.439       .  S
N459        C474   1.342       .  A
N459       Co481   2.092       .  S
C460        N488   1.341       .  A
C460        C463   1.456       .  S
C460        H494   1.082       .  S
C463        N484   1.352       .  A
C463        C653   1.445       .  S
N464        N470   1.321       .  A
N465        C491   1.342       .  A
N465        N467   1.321       .  A
N465       Co481   2.088   1_565  S
N466        C480   1.339       .  A
N467        N495   1.325       .  A
N467       Co485   2.084   1_665  S
H468        C491   1.082       .  S
H469        C486   1.082       .  S
N471       Co485   2.088       .  S
N472        N484   1.328       .  A
N472        N488   1.321       .  A
N472       Co481   2.097   1_564  S
C473        N477   1.350       .  A
C473        C487   1.459       .  S
C473        C828   1.445       .  S
C474        C493   1.457       .  S
C474        H478   1.082       .  S
N475        C486   1.340       .  A
N475       Co485   2.083   1_565  S
C479        N495   1.347       .  A
C479        C491   1.457       .  S
C479        C626   1.436       .  S
Co481      Cl492   2.459   1_655  S
N482        C493   1.349       .  A
C483        C763   1.437       .  S
Co485      Cl492   2.450       .  S
C493        C709   1.442       .  S
C496        C497   1.538       .  S
C496        C502   1.546       .  S
C496        C500   1.547       .  S
C496        C738   1.467       .  S
C497        H504   1.086       .  S
C497        C498   1.360       .  D
C498        C499   1.532       .  S
C498        C612   1.477       .  S
C499        C503   1.531       .  S
C499        C501   1.530       .  S
C499        H505   1.103       .  S
C500        H506   1.086       .  S
C500        C501   1.366       .  D
C501        C619   1.484       .  S
C502        H507   1.086       .  S
C502        C503   1.367       .  D
C503        C616   1.477       .  S
C508        C509   1.543       .  S
C508        C514   1.542       .  S
C508        C512   1.546       .  S
C508        C624   1.467       .  S
C509        H516   1.086       .  S
C509        C510   1.364       .  D
C510        C511   1.528       .  S
C510        C603   1.470       .  S
C511        C515   1.530       .  S
C511        C513   1.525       .  S
C511        H517   1.105       .  S
C512        H518   1.086       .  S
C512        C513   1.365       .  D
C513        C607   1.476       .  S
C514        H519   1.086       .  S
C514        C515   1.363       .  D
C515        C620   1.474       .  S
C520        C521   1.543       .  S
C520        C526   1.544       .  S
C520        C524   1.542       .  S
C520        C778   1.462       .  S
C521        H528   1.086       .  S
C521        C522   1.363       .  D
C522        C523   1.530       .  S
C522        C604   1.477       .  S
C523        C527   1.525       .  S
C523        C525   1.527       .  S
C523        H529   1.104       .  S
C524        H530   1.086       .  S
C524        C525   1.362       .  D
C525        C611   1.469       .  S
C526        H531   1.086       .  S
C526        C527   1.364       .  D
C527        C599   1.471       .  S
C532        C533   1.541       .  S
C532        C538   1.543       .  S
C532        C536   1.549       .  S
C532        C597   1.476       .  S
C533        H540   1.086       .  S
C533        C534   1.363       .  D
C534        C535   1.535       .  S
C534        C600   1.482       .  S
C535        C539   1.531       .  S
C535        C537   1.534       .  S
C535        H541   1.107       .  S
C536        H542   1.086       .  S
C536        C537   1.369       .  D
C537        C615   1.491       .  S
C538        H543   1.086       .  S
C538        C539   1.363       .  D
C539        C608   1.480       .  S
C544        N562   1.349       .  A
C544        C581   1.456       .  S
C544        C795   1.437       .  S
N545        N562   1.325       .  A
N545        N567   1.321       .  A
N545       Co582   2.086       .  S
C546        N571   1.343       .  A
C546        C584   1.459       .  S
C546        H591   1.082       .  S
H547        C588   1.082       .  S
C548        N572   1.342       .  A
C548        C552   1.456       .  S
C548        H577   1.082       .  S
Co549       N567   2.086       .  S
Co549       N557   2.079       .  S
Co549       N589   2.080   1_455  S
Co549       N565   2.091   1_455  S
Co549      Cl593   2.453       .  S
N550        C588   1.344       .  A
N550        N557   1.321       .  A
N550       Co551   2.098       .  S
Co551       N554   2.094       .  S
Co551       N571   2.093   1_455  S
Co551       N558   2.098   1_455  S
Co551      Cl593   2.457       .  S
C552        N590   1.349       .  A
C552        C753   1.440       .  S
N553        N560   1.321       .  A
N553        N583   1.325       .  A
N553       Co586   2.086       .  S
N554        N572   1.322       .  A
N554        N590   1.326       .  A
N555        C584   1.349       .  A
N555        N565   1.326       .  A
H556        C581   1.082       .  S
N557        N578   1.325       .  A
N558        N576   1.321       .  A
N558        N563   1.328       .  A
C559        N563   1.351       .  A
C559        C587   1.457       .  S
C559        C667   1.445       .  S
N560        C575   1.341       .  A
N560       Co582   2.084       .  S
C561        N589   1.341       .  A
C561        C564   1.454       .  S
C561        H595   1.082       .  S
C564        N585   1.349       .  A
C564        C724   1.437       .  S
N565        N571   1.322       .  A
N566        C592   1.340       .  A
N566        N568   1.322       .  A
N566       Co582   2.080   1_655  S
N567        C581   1.341       .  A
N568        N596   1.325       .  A
N568       Co586   2.089   1_655  S
H569        C592   1.082       .  S
H570        C587   1.082       .  S
N572       Co586   2.087       .  S
N573        N585   1.326       .  A
N573        N589   1.320       .  A
N573       Co582   2.089   1_655  S
C574        N578   1.346       .  A
C574        C588   1.461       .  S
C574        C821   1.441       .  S
C575        C594   1.455       .  S
C575        H579   1.082       .  S
N576        C587   1.342       .  A
N576       Co586   2.088   1_655  S
C580        N596   1.348       .  A
C580        C592   1.454       .  S
C580        C640   1.435       .  S
Co582      Cl593   2.455       .  S
N583        C594   1.348       .  A
C584        C598   1.443       .  S
Co586      Cl593   2.452       .  S
C594        C688   1.437       .  S
C597        C598   1.211       .  T
C599        H601   1.088       .  S
C599        C600   1.341       .  D
C600        H602   1.086       .  S
C603        H605   1.088       .  S
C603        C604   1.340       .  D
C604        H606   1.086       .  S
C607        H609   1.085       .  S
C607        C608   1.343       .  D
C608        H610   1.086       .  S
C611        H613   1.085       .  S
C611        C612   1.339       .  D
C612        H614   1.086       .  S
C615        H617   1.086       .  S
C615        C616   1.343       .  D
C616        H618   1.084       .  S
C619        H621   1.086       .  S
C619        C620   1.342       .  D
C620        H622   1.085       .  S
C623        C624   1.206       .  T
C625        C626   1.206       .  T
C627        H629   1.087       .  S
C627        C628   1.343       .  D
C628        H630   1.087       .  S
C631        H633   1.086       .  S
C631        C632   1.340       .  D
C632        H634   1.088       .  S
C635        H637   1.087       .  S
C635        C636   1.342       .  D
C636        H638   1.086       .  S
C639        C640   1.205       .  T
C641        H643   1.086       .  S
C641        C642   1.341       .  D
C642        H644   1.085       .  S
C645        H647   1.087       .  S
C645        C646   1.340       .  D
C646        H648   1.086       .  S
C649        H651   1.086       .  S
C649        C650   1.339       .  D
C650        H652   1.088       .  S
C653        C654   1.211       .  T
C655        H657   1.086       .  S
C655        C656   1.344       .  D
C656        H658   1.072       .  S
C659        H661   1.086       .  S
C659        C660   1.344       .  D
C660        H662   1.087       .  S
C663        H665   1.086       .  S
C663        C664   1.344       .  D
C664        H666   1.088       .  S
C667        C668   1.211       .  T
C669        H671   1.088       .  S
C669        C670   1.344       .  D
C670        H672   1.086       .  S
C673        H675   1.089       .  S
C673        C674   1.359       .  D
C674        H676   1.090       .  S
C677        H679   1.079       .  S
C677        C678   1.346       .  D
C678        H680   1.086       .  S
C681        C682   1.208       .  T
C683        H685   1.088       .  S
C683        C684   1.342       .  D
C684        H686   1.086       .  S
C687        C688   1.206       .  T
C689        H691   1.087       .  S
C689        C690   1.341       .  D
C690        H692   1.086       .  S
C693        H695   1.087       .  S
C693        C694   1.343       .  D
C694        H696   1.087       .  S
C697        H699   1.087       .  S
C697        C698   1.342       .  D
C698        H700   1.087       .  S
C701        H703   1.086       .  S
C701        C702   1.341       .  D
C702        H704   1.087       .  S
C705        H707   1.088       .  S
C705        C706   1.339       .  D
C706        H708   1.086       .  S
C709        C710   1.209       .  T
C711        H713   1.085       .  S
C711        C712   1.341       .  D
C712        H714   1.086       .  S
C715        H717   1.085       .  S
C715        C716   1.340       .  D
C716        H718   1.086       .  S
C719        H721   1.085       .  S
C719        C720   1.342       .  D
C720        H722   1.086       .  S
C723        C724   1.206       .  T
C725        H727   1.084       .  S
C725        C726   1.341       .  D
C726        H728   1.086       .  S
C729        H731   1.087       .  S
C729        C730   1.340       .  D
C730        H732   1.086       .  S
C733        H735   1.088       .  S
C733        C734   1.338       .  D
C734        H736   1.086       .  S
C737        C738   1.206       .  T
C739        C740   1.206       .  T
C741        C742   1.208       .  T
C743        C744   1.205       .  T
C745        C746   1.208       .  T
C747        C748   1.202       .  T
C749        H751   1.086       .  S
C749        C750   1.340       .  D
C750        H752   1.085       .  S
C753        C754   1.209       .  T
C755        H757   1.086       .  S
C755        C756   1.341       .  D
C756        H758   1.085       .  S
C759        H761   1.085       .  S
C759        C760   1.340       .  D
C760        H762   1.087       .  S
C763        C764   1.207       .  T
C765        H767   1.086       .  S
C765        C766   1.340       .  D
C766        H768   1.088       .  S
C769        H771   1.086       .  S
C769        C770   1.342       .  D
C770        H772   1.086       .  S
C773        H775   1.087       .  S
C773        C774   1.340       .  D
C774        H776   1.086       .  S
C777        C778   1.203       .  T
C779        C780   1.206       .  T
C781        C782   1.207       .  T
C783        C784   1.204       .  T
C785        C786   1.203       .  T
C787        C788   1.203       .  T
C789        C790   1.202       .  T
C791        H793   1.088       .  S
C791        C792   1.337       .  D
C792        H794   1.086       .  S
C795        C796   1.207       .  T
C797        H799   1.080       .  S
C797        C798   1.341       .  D
C798        H800   1.086       .  S
C801        H803   1.088       .  S
C801        C802   1.340       .  D
C802        H804   1.086       .  S
C805        C806   1.210       .  T
C807        H809   1.087       .  S
C807        C808   1.340       .  D
C808        H810   1.087       .  S
C811        H813   1.084       .  S
C811        C812   1.340       .  D
C812        H814   1.085       .  S
C815        H817   1.086       .  S
C815        C816   1.339       .  D
C816        H818   1.086       .  S
C819        C820   1.205       .  T
C821        C822   1.209       .  T
C823        H825   1.086       .  S
C823        C824   1.348       .  D
C824        H826   1.084       .  S
C827        C828   1.211       .  T
C829        H831   1.067       .  S
C829        C830   1.343       .  D
C830        H832   1.086       .  S
C833        H835   1.088       .  S
C833        C834   1.360       .  D
C834        H836   1.089       .  S
C837        C838   1.208       .  T
C839        H841   1.088       .  S
C839        C840   1.349       .  D
C840        H842   1.088       .  S
C843        H845   1.088       .  S
C843        C844   1.336       .  D
C844        H846   1.086       .  S
C847        H849   1.085       .  S
C847        C848   1.340       .  D
C848        H850   1.086       .  S
C851        C852   1.205       .  T
