geometry optimzed in LAMMPS
_audit_creation_date              2020-11-30 
_audit_creation_method            'lammps2cif' 
_symmetry_space_group_name_H-M    'P1' 
_symmetry_Int_Tables_number       1 
_symmetry_cell_setting            triclinic 
loop_ 
_symmetry_equiv_pos_as_xyz 
  x,y,z 
_cell_length_a                    47.98471719 
_cell_length_b                    47.67580004656051 
_cell_length_c                    34.40768736814714 
_cell_angle_alpha                 89.05754907888556 
_cell_angle_beta                  90.33611583213289 
_cell_angle_gamma                 121.60584432457199 
loop_ 
_atom_site_label 
_atom_site_type_symbol 
_atom_site_fract_x 
_atom_site_fract_y 
_atom_site_fract_z 
_atom_site_charge 
In1        In  0.98147560  0.21589429  0.65716758     1.36900
C2          C  0.95959525  0.23768248  0.71267744     0.78000
O3          O  0.92855254  0.18407640  0.63969989    -0.60500
O4          O  0.95262473  0.16115129  0.66368848    -0.51400
C5          C  0.99498811  0.23059374  0.58196260     0.70600
O6          O  0.99072466  0.24900126  0.60404870    -0.46300
C7          C  0.03682987  0.22188015  0.68078612     0.75300
O8          O  0.96375204  0.24877252  0.67825423    -0.58100
O9          O  0.00948616  0.19544145  0.68363964    -0.48200
O10         O  0.97093933  0.21960061  0.71944400    -0.54500
C11         C  0.92660443  0.15768106  0.65021112     0.85500
O12         O  0.99344427  0.20618655  0.59876348    -0.56400
O13         O  0.03586673  0.24634902  0.66771280    -0.59700
In14       In  0.28927406  0.21582703  0.66207746     1.36900
C15         C  0.32683556  0.23226063  0.72427281     0.78000
O16         O  0.26879794  0.24855577  0.66767415    -0.60500
O17         O  0.23762451  0.19733848  0.67999116    -0.51400
C18         C  0.29847452  0.22905046  0.58625431     0.70600
O19         O  0.31816303  0.24948467  0.61078158    -0.46300
C20         C  0.29120429  0.16160718  0.65729180     0.75300
O21         O  0.33602220  0.25086910  0.69437226    -0.58100
O22         O  0.26467736  0.16060069  0.66326685    -0.48200
O23         O  0.29734773  0.20908570  0.72412722    -0.54500
C24         C  0.24050837  0.22514502  0.67693203     0.85500
O25         O  0.27431242  0.20352292  0.60092199    -0.56400
O26         O  0.31603161  0.19008364  0.65243370    -0.59700
In27       In  0.30192284  0.90780810  0.66749786     1.36900
C28         C  0.34114342  0.93412573  0.72872595     0.78000
O29         O  0.32151943  0.96133556  0.65612241    -0.60500
O30         O  0.27029296  0.92959235  0.66579751    -0.51400
C31         C  0.31059545  0.90329522  0.59137545     0.70600
O32         O  0.33237807  0.90824552  0.61602725    -0.46300
C33         C  0.25650435  0.84677662  0.68979842     0.75300
O34         O  0.34988501  0.92440451  0.69978341    -0.58100
O35         O  0.25268904  0.87092580  0.69105313    -0.48200
O36         O  0.31205475  0.92726201  0.72752445    -0.54500
C37         C  0.29403872  0.95862178  0.65986448     0.85500
O38         O  0.28487435  0.89958868  0.60605098    -0.56400
O39         O  0.28432704  0.85377635  0.67796089    -0.59700
In40       In  0.98754762  0.59862923  0.67489914     1.36900
C41         C  0.96074232  0.55778868  0.73486193     0.78000
O42         O  0.04044629  0.61838491  0.69010307    -0.60500
O43         O  0.02097360  0.64916654  0.69693937    -0.51400
C44         C  0.99874959  0.59536281  0.60003836     0.70600
O45         O  0.99049822  0.57115754  0.62301292    -0.46300
C46         C  0.93289624  0.59758976  0.66086432     0.75300
O47         O  0.97519605  0.55201179  0.70830786    -0.58100
O48         O  0.95831925  0.62294475  0.67343687    -0.48200
O49         O  0.96353612  0.58550180  0.73258698    -0.54500
C50         C  0.04565979  0.64635833  0.69901343     0.85500
O51         O  0.00267362  0.62077814  0.61600053    -0.56400
O52         O  0.93593568  0.57335658  0.65438112    -0.59700
In53       In  0.67320732  0.59245485  0.64919730     1.36900
C54         C  0.65711489  0.55113271  0.70910890     0.78000
O55         O  0.70544432  0.57264645  0.63772869    -0.60500
O56         O  0.72766246  0.62290356  0.65384312    -0.51400
C57         C  0.66071631  0.58455333  0.57319643     0.70600
O58         O  0.64066127  0.56413093  0.59798602    -0.46300
C59         C  0.66245382  0.63978046  0.66794485     0.75300
O60         O  0.63967428  0.54285464  0.67880490    -0.58100
O61         O  0.69017642  0.64302682  0.66747197    -0.48200
O62         O  0.67925804  0.58103688  0.71036645    -0.54500
C63         C  0.73142029  0.59937173  0.64565494     0.85500
O64         O  0.68584853  0.60874744  0.58757148    -0.56400
O65         O  0.63900710  0.61135436  0.65956411    -0.59700
In66       In  0.66149116  0.89404261  0.64712580     1.36900
C67         C  0.64499255  0.91741982  0.70575689     0.78000
O68         O  0.62628215  0.83949195  0.65780814    -0.60500
O69         O  0.67713807  0.86060171  0.66895738    -0.51400
C70         C  0.65393481  0.88793440  0.57059847     0.70600
O71         O  0.63368007  0.89044088  0.59153705    -0.46300
C72         C  0.71729292  0.95092878  0.64113728     0.75300
O73         O  0.62819851  0.90873729  0.67481718    -0.58100
O74         O  0.71604896  0.92492274  0.65248591    -0.48200
O75         O  0.66590282  0.90913795  0.70838031    -0.54500
C76         C  0.64900487  0.83492089  0.66804667     0.85500
O77         O  0.67607712  0.88691341  0.58917707    -0.56400
O78         O  0.69018383  0.94745049  0.63205656    -0.59700
In79       In  0.29920833  0.90486630  0.22961915     1.36900
C80         C  0.31892864  0.88124894  0.17357905     0.78000
O81         O  0.26947337  0.85086380  0.24317172    -0.60500
O82         O  0.24443418  0.87489617  0.22580442    -0.51400
C83         C  0.30882920  0.91271040  0.30637592     0.70600
O84         O  0.33009122  0.91305490  0.28434296    -0.46300
C85         C  0.30711298  0.96205363  0.20583170     0.75300
O86         O  0.33403778  0.89022631  0.20559359    -0.58100
O87         O  0.28056037  0.93483072  0.20347821    -0.48200
O88         O  0.29779091  0.88899128  0.16872880    -0.54500
C89         C  0.24253030  0.84827262  0.23538368     0.85500
O90         O  0.28446470  0.90992818  0.28878423    -0.56400
O91         O  0.33085471  0.96018030  0.21869947    -0.59700
In92       In  0.97556730  0.58672756  0.24145486     1.36900
C93         C  0.99690041  0.56787418  0.18245545     0.78000
O94         O  0.92075202  0.55196824  0.23953751    -0.60500
O95         O  0.94122563  0.60136401  0.21952073    -0.51400
C96         C  0.97671999  0.57800611  0.31815661     0.70600
O97         O  0.97167910  0.55566168  0.29465558    -0.46300
C98         C  0.02934057  0.64558520  0.23906378     0.75300
O99         O  0.99221253  0.55437133  0.21566852    -0.58100
O100        O  0.00139665  0.64166169  0.23427249    -0.48200
O101        O  0.98569378  0.58636221  0.17833175    -0.54500
C102        C  0.91579225  0.57363485  0.22554103     0.85500
O103        O  0.97919198  0.60325007  0.30239807    -0.56400
O104        O  0.02941103  0.61960752  0.24619221    -0.59700
In105      In  0.67078801  0.58878644  0.21185917     1.36900
C106        C  0.63237080  0.57049399  0.15066195     0.78000
O107        O  0.64667224  0.61723340  0.21884758    -0.60500
O108        O  0.69768875  0.64360343  0.20520444    -0.51400
C109        C  0.66626181  0.58292661  0.28893702     0.70600
O110        O  0.64327559  0.56195846  0.26765472    -0.46300
C111        C  0.71772567  0.57752987  0.19624729     0.75300
O112        O  0.62294288  0.55339957  0.18183640    -0.58100
O113        O  0.72055867  0.60513692  0.19128502    -0.48200
O114        O  0.66220441  0.59264399  0.14946199    -0.54500
C115        C  0.67228548  0.64459291  0.21141883     0.85500
O116        O  0.69089976  0.60494440  0.27059213    -0.56400
O117        O  0.68995642  0.55464114  0.20820224    -0.59700
In118      In  0.29319293  0.21068740  0.22660066     1.36900
C119        C  0.31086340  0.25141699  0.16694584     0.78000
O120        O  0.32943762  0.19434002  0.21902223    -0.60500
O121        O  0.27895206  0.16026171  0.20834824    -0.51400
C122        C  0.30088348  0.21521504  0.30324685     0.70600
O123        O  0.32208439  0.23734603  0.28070626    -0.46300
C124        C  0.23818832  0.21101160  0.22511373     0.75300
O125        O  0.32669096  0.26050230  0.19853280    -0.58100
O126        O  0.23852013  0.18526304  0.21758892    -0.48200
O127        O  0.29082341  0.22094128  0.16419603    -0.54500
C128        C  0.30756919  0.16542090  0.20967962     0.85500
O129        O  0.27727686  0.19118133  0.28629933    -0.56400
O130        O  0.26527071  0.23523400  0.23561613    -0.59700
In131      In  0.98695357  0.22274683  0.22299104     1.36900
C132        C  0.00702944  0.26262188  0.16188110     0.78000
O133        O  0.04081972  0.24257938  0.22394602    -0.60500
O134        O  0.00881112  0.19151338  0.21364876    -0.51400
C135        C  0.98697622  0.23296003  0.29907444     0.70600
O136        O  0.98320928  0.25051947  0.27421737    -0.46300
C137        C  0.92611583  0.17562000  0.20879870     0.75300
O138        O  0.00837602  0.27313481  0.19574317    -0.58100
O139        O  0.95001227  0.17157272  0.20866454    -0.48200
O140        O  0.99115479  0.23182140  0.15895850    -0.54500
C141        C  0.03794065  0.21538363  0.21635411     0.85500
O142        O  0.98980437  0.21042663  0.28482467    -0.56400
O143        O  0.93305924  0.20433655  0.21682508    -0.59700
In144      In  0.67660354  0.90485653  0.21151644     1.35700
C145        C  0.63591568  0.88147502  0.15202701     0.78000
O146        O  0.69819409  0.95972954  0.20377046    -0.60500
O147        O  0.72771963  0.93943524  0.19395356    -0.51400
C148        C  0.66532078  0.90569318  0.28715131     0.70600
O149        O  0.64869843  0.90994015  0.26172201    -0.46300
C150        C  0.68277002  0.85314051  0.21317791     0.75300
O151        O  0.62760482  0.88811810  0.18368385    -0.58100
O152        O  0.70705098  0.88196721  0.20820941    -0.48200
O153        O  0.66574008  0.89116521  0.14925221    -0.54500
C154        C  0.72600092  0.96478923  0.19506920     0.85500
O155        O  0.68747848  0.90203504  0.27363143    -0.56400
O156        O  0.65575047  0.85108356  0.21856291    -0.59700
C157        C  0.57788463  0.80178218  0.10119447     0.86900
C158        C  0.60683342  0.82645260  0.12556967    -0.53400
C159        C  0.61208175  0.85738070  0.12491527     0.09800
C160        C  0.58814676  0.86133085  0.09895543     0.20700
C161        C  0.54879092  0.80383766  0.11592019    -0.54100
C162        C  0.55405078  0.83505150  0.11441360     0.09900
C163        C  0.58469192  0.81720081  0.06027137    -0.53600
C164        C  0.59003966  0.84837966  0.05877706     0.10500
H165        H  0.62115544  0.81959477  0.14348949     0.15000
H166        H  0.59280965  0.88672454  0.09838905     0.00700
H167        H  0.52568906  0.78243365  0.12496202     0.15300
H168        H  0.58535864  0.80440349  0.03482942     0.15100
C169        C  0.29372104  0.80121559  0.12268858     0.86900
C170        C  0.30186690  0.81750542  0.08224627    -0.53400
C171        C  0.32942881  0.84843345  0.08077002     0.09800
C172        C  0.34616206  0.86033833  0.12100494     0.20700
C173        C  0.32479985  0.80223515  0.13545043    -0.54100
C174        C  0.35240545  0.83298939  0.13450746     0.09900
C175        C  0.29173519  0.82556333  0.14890821    -0.53600
C176        C  0.31887231  0.85641084  0.14848382     0.10500
H177        H  0.28679983  0.80529508  0.05713142     0.15000
H178        H  0.36833819  0.88545871  0.12069907     0.00700
H179        H  0.32521899  0.78033807  0.14321899     0.15300
H180        H  0.27046887  0.81879816  0.16687345     0.15100
C181        C  0.07626558  0.59812575  0.12782133     0.86900
C182        C  0.05205026  0.59786986  0.15634705    -0.53400
C183        C  0.02156740  0.57042021  0.15516785     0.09800
C184        C  0.01772783  0.54530568  0.12463136     0.20700
C185        C  0.07552677  0.56604829  0.13660365    -0.54100
C186        C  0.04487958  0.53827499  0.13465934     0.09900
C187        C  0.05999433  0.59261730  0.08797830    -0.53600
C188        C  0.02952916  0.56485471  0.08570332     0.10500
H189        H  0.05861687  0.61785098  0.17629659     0.15000
H190        H  0.99279348  0.52299167  0.12369984     0.00700
H191        H  0.09726823  0.56502516  0.14149341     0.15300
H192        H  0.07218656  0.60925778  0.06353416     0.15100
C193        C  0.08333721  0.31256645  0.10100499     0.86900
C194        C  0.06562734  0.30308760  0.06202786    -0.53400
C195        C  0.03563937  0.30011988  0.06230656     0.09800
C196        C  0.02591025  0.30651299  0.10264361     0.20700
C197        C  0.08441556  0.34412774  0.11220103    -0.54100
C198        C  0.05449852  0.34109260  0.11329472     0.09900
C199        C  0.05952824  0.28661684  0.12989269    -0.53600
C200        C  0.02973353  0.28354878  0.13122915     0.10500
H201        H  0.07619816  0.29918674  0.03641460     0.15000
H202        H  0.00145989  0.30370487  0.10375543     0.00700
H203        H  0.10684164  0.36705735  0.11862384     0.15300
H204        H  0.06619678  0.27270803  0.14906640     0.15100
C205        C  0.28264355  0.30198326  0.11256203     0.86900
C206        C  0.28102600  0.27543164  0.13940383    -0.53400
C207        C  0.30886955  0.27437637  0.13996130     0.09800
C208        C  0.33604329  0.29987084  0.11292643     0.20700
C209        C  0.31336607  0.33414202  0.12572744    -0.54100
C210        C  0.34141076  0.33318416  0.12555372     0.09900
C211        C  0.29184440  0.29539367  0.07288210    -0.53600
C212        C  0.31985686  0.29453174  0.07263922     0.10500
H213        H  0.25976216  0.25916195  0.15720153     0.15000
H214        H  0.35838431  0.29845579  0.11336004     0.00700
H215        H  0.31354157  0.35619947  0.13306795     0.15300
H216        H  0.27716246  0.29175115  0.04718291     0.15100
C217        C  0.58120843  0.59664523  0.09484069     0.86900
C218        C  0.58902984  0.58854905  0.05498990    -0.53400
C219        C  0.59131948  0.56109934  0.05474205     0.09800
C220        C  0.58574819  0.54428355  0.09523761     0.20700
C221        C  0.54958171  0.56485237  0.10766646    -0.54100
C222        C  0.55188084  0.53732311  0.10764813     0.09900
C223        C  0.60752715  0.59883165  0.12174643    -0.53600
C224        C  0.60981690  0.57158845  0.12258306     0.10500
H225        H  0.59245162  0.60352788  0.02929657     0.15000
H226        H  0.58799335  0.52227501  0.09583885     0.00700
H227        H  0.52701585  0.56379126  0.11425319     0.15300
H228        H  0.62257737  0.62003755  0.13987746     0.15100
C229        C  0.88271182  0.49505612  0.78750402     0.86900
C230        C  0.90628279  0.52603210  0.76400537    -0.53400
C231        C  0.93757145  0.53267814  0.76257488     0.09800
C232        C  0.94298300  0.50837841  0.78643794     0.20700
C233        C  0.88629240  0.46765914  0.77025638    -0.54100
C234        C  0.91785715  0.47442153  0.76996912     0.09900
C235        C  0.89846115  0.50081636  0.82779667    -0.53600
C236        C  0.92989790  0.50778531  0.82760430     0.10500
H237        H  0.89839939  0.54038929  0.74770990     0.15000
H238        H  0.96864625  0.51430933  0.78579516     0.00700
H239        H  0.86538274  0.44449847  0.76085867     0.15300
H240        H  0.88622112  0.50026628  0.85440028     0.15100
C241        C  0.88128311  0.21253839  0.76717273     0.86900
C242        C  0.89777272  0.21950028  0.80693775    -0.53400
C243        C  0.92868256  0.24686487  0.80769791     0.09800
C244        C  0.94054207  0.26455834  0.76751259     0.20700
C245        C  0.88298466  0.24449836  0.75552994    -0.54100
C246        C  0.91383625  0.27184186  0.75546483     0.09900
C247        C  0.90479406  0.21055455  0.73944589    -0.53600
C248        C  0.93565476  0.23746889  0.73926168     0.10500
H249        H  0.88572021  0.20400024  0.83228785     0.15000
H250        H  0.96573855  0.28652861  0.76733931     0.00700
H251        H  0.86153904  0.24560476  0.74851809     0.15300
H252        H  0.89749795  0.18952643  0.72094178     0.15100
C253        C  0.39389029  0.00996130  0.78997745     0.86900
C254        C  0.38529999  0.99083749  0.82848361    -0.53400
C255        C  0.38206247  0.96062906  0.82629722     0.09800
C256        C  0.38726369  0.95205293  0.78460608     0.20700
C257        C  0.42481970  0.01119371  0.77591274    -0.54100
C258        C  0.42158082  0.98103663  0.77296250     0.09900
C259        C  0.36722438  0.98694760  0.76174846    -0.53600
C260        C  0.36380176  0.95684907  0.75831780     0.10500
H261        H  0.38237263  0.00068983  0.85534275     0.15000
H262        H  0.38413313  0.92738395  0.78220120     0.00700
H263        H  0.44754396  0.03396532  0.76927121     0.15300
H264        H  0.35300965  0.99439079  0.74456771     0.15100
C265        C  0.67504689  0.99787708  0.75762049     0.86900
C266        C  0.67507894  0.97291223  0.73068953    -0.53400
C267        C  0.64717521  0.94267166  0.73174592     0.09800
C268        C  0.62125663  0.93985096  0.76052354     0.20700
C269        C  0.64419018  0.99834287  0.74636604    -0.54100
C270        C  0.61579588  0.96793331  0.74824177     0.09900
C271        C  0.66727295  0.98158946  0.79794398    -0.53600
C272        C  0.63908021  0.95141913  0.80001682     0.10500
H273        H  0.69559795  0.97881721  0.71177320     0.15000
H274        H  0.59867673  0.91503405  0.76160347     0.00700
H275        H  0.64446091  0.02071466  0.73965293     0.15300
H276        H  0.68292437  0.99333203  0.82283840     0.15100
C277        C  0.67932912  0.49643720  0.76557341     0.86900
C278        C  0.66913198  0.50299868  0.80506608    -0.53400
C279        C  0.64219464  0.50575844  0.80357119     0.09800
C280        C  0.62793255  0.50202488  0.76232730     0.20700
C281        C  0.64851396  0.46578576  0.75056184    -0.54100
C282        C  0.62134911  0.46824775  0.74948092     0.09900
C283        C  0.68377810  0.52464704  0.73935276    -0.53600
C284        C  0.65690475  0.52734002  0.73695806     0.10500
H285        H  0.68216230  0.50600206  0.83194400     0.15000
H286        H  0.60636079  0.50473534  0.76065214     0.00700
H287        H  0.64806457  0.44342281  0.74360680     0.15300
H288        H  0.70596566  0.54045180  0.72268522     0.15100
C289        C  0.37951468  0.20845773  0.78155726     0.86900
C290        C  0.35247368  0.20488763  0.75468713    -0.53400
C291        C  0.34972232  0.23192615  0.75263258     0.09800
C292        C  0.37434789  0.26043717  0.77842372     0.20700
C293        C  0.41064412  0.23995080  0.76696742    -0.54100
C294        C  0.40809168  0.26729975  0.76562013     0.09900
C295        C  0.37230252  0.21780321  0.82070216    -0.53600
C296        C  0.36992316  0.24508161  0.81952368     0.10500
H297        H  0.33737042  0.18303880  0.73753648     0.15000
H298        H  0.37190685  0.28233267  0.77707450     0.00700
H299        H  0.43318669  0.24110363  0.76015700     0.15300
H300        H  0.36963201  0.20397690  0.84727066     0.15100
C301        C  0.54271012  0.38531158  0.73150669     0.16300
C302        C  0.52019627  0.35206966  0.72468627    -0.32700
C303        C  0.48846051  0.33871349  0.73910759     0.20700
C304        C  0.47916101  0.35762934  0.75886380     0.02900
C305        C  0.50165153  0.39119771  0.76520280    -0.22400
C306        C  0.53372762  0.40446891  0.75133146     0.12100
S307        S  0.58304475  0.40482894  0.71963683    -0.06100
C308        C  0.58838651  0.43933171  0.74213545    -0.09600
C309        C  0.55986600  0.43570520  0.75724134    -0.26200
S310        S  0.43992748  0.33579293  0.77623397    -0.03400
C311        C  0.43647327  0.30077204  0.75736108    -0.16800
C312        C  0.46412693  0.30633256  0.73781443    -0.14800
H313        H  0.52745535  0.33692518  0.71007033     0.20500
H314        H  0.49480680  0.40596799  0.78141893     0.16600
H315        H  0.55855011  0.45408528  0.77379682     0.19100
H316        H  0.46686070  0.28755030  0.72434941     0.12500
C317        C  0.41004835  0.09888442  0.78798348     0.16300
C318        C  0.42232328  0.13241795  0.78114326    -0.32700
C319        C  0.40066020  0.14352589  0.78529861     0.20700
C320        C  0.36843286  0.12236323  0.79657358     0.02900
C321        C  0.35627256  0.08890710  0.80401302    -0.22400
C322        C  0.37778196  0.07767115  0.79912498     0.12100
S323        S  0.43163616  0.08016829  0.78130706    -0.06100
C324        C  0.39661514  0.04299470  0.79281703    -0.09600
C325        C  0.37006310  0.04570201  0.80245760    -0.26200
S326        S  0.34603019  0.14055460  0.79937920    -0.03400
C327        C  0.38039322  0.17723788  0.78486155    -0.16800
C328        C  0.40771901  0.17496976  0.77848658    -0.14800
H329        H  0.44742367  0.14895152  0.77196742     0.20500
H330        H  0.33096993  0.07223102  0.81231723     0.16600
H331        H  0.34596473  0.02505223  0.80984366     0.19100
H332        H  0.43165291  0.19490735  0.76962509     0.12500
C333        C  0.50074018  0.98705051  0.73915886     0.16300
C334        C  0.53285689  0.99861527  0.72730292    -0.32700
C335        C  0.54568975  0.97875399  0.73555122     0.20700
C336        C  0.52711539  0.94826129  0.75376937     0.02900
C337        C  0.49458439  0.93627411  0.76480258    -0.22400
C338        C  0.48200640  0.95663264  0.75756139     0.12100
S339        S  0.48247165  0.00936118  0.73581831    -0.06100
C340        C  0.44920944  0.97777826  0.76025903    -0.09600
C341        C  0.45215664  0.95097375  0.76941168    -0.26200
S342        S  0.54830070  0.92936947  0.76407740    -0.03400
C343        C  0.58279344  0.96332539  0.74453772    -0.16800
C344        C  0.57740263  0.98735489  0.72977636    -0.14800
H345        H  0.54773730  0.02278208  0.71392734     0.20500
H346        H  0.48026466  0.91285489  0.77998469     0.16600
H347        H  0.43434837  0.92935289  0.78572707     0.19100
H348        H  0.59587710  0.01061811  0.71689548     0.12500
C349        C  0.79164002  0.13967809  0.75700428     0.16300
C350        C  0.75817774  0.11900112  0.74954753    -0.32700
C351        C  0.74471739  0.08499493  0.75373830     0.20700
C352        C  0.76381278  0.07222987  0.76453348     0.02900
C353        C  0.79728068  0.09287376  0.77176778    -0.22400
C354        C  0.81063076  0.12683878  0.76796477     0.12100
S355        S  0.81261651  0.18150759  0.75328836    -0.06100
C356        C  0.84758564  0.18182821  0.76638894    -0.09600
C357        C  0.84260921  0.15084504  0.77374777    -0.26200
S358        S  0.74287941  0.03054572  0.76922542    -0.03400
C359        C  0.70763002  0.03003916  0.75713472    -0.16800
C360        C  0.71247986  0.06094553  0.74912230    -0.14800
H361        H  0.74326170  0.12898466  0.74113515     0.20500
H362        H  0.81218626  0.08290958  0.78032487     0.16600
H363        H  0.86169166  0.14619038  0.78184813     0.19100
H364        H  0.69370383  0.06603494  0.74131871     0.12500
C365        C  0.75453098  0.48739626  0.74965293     0.16300
C366        C  0.78111086  0.48624683  0.73472205    -0.32700
C367        C  0.80259706  0.48489770  0.76157723     0.20700
C368        C  0.79730181  0.48398189  0.80124944     0.02900
C369        C  0.77055099  0.48450583  0.81601202    -0.22400
C370        C  0.74968934  0.48673667  0.78937113     0.12100
S371        S  0.72657764  0.49100361  0.72259856    -0.06100
C372        C  0.70879030  0.49264090  0.76544975    -0.09600
C373        C  0.72366019  0.48958322  0.79861779    -0.26200
S374        S  0.82709761  0.48515774  0.82929221    -0.03400
C375        C  0.84800223  0.48801176  0.78732481    -0.16800
C376        C  0.83141093  0.48655674  0.75335906    -0.14800
H377        H  0.78547636  0.48751905  0.70371624     0.20500
H378        H  0.76688002  0.48449357  0.84704538     0.16600
H379        H  0.71617657  0.48924836  0.82823609     0.19100
H380        H  0.84095977  0.48869347  0.72430263     0.12500
C381        C  0.91134405  0.34883943  0.72986516     0.16300
C382        C  0.89975429  0.36965473  0.72133100    -0.32700
C383        C  0.91667890  0.40113893  0.73700701     0.20700
C384        C  0.94483828  0.41210451  0.75879320     0.02900
C385        C  0.95713349  0.39152416  0.76630523    -0.22400
C386        C  0.93925019  0.35931598  0.75203982     0.12100
S387        S  0.89079983  0.30834052  0.71883833    -0.06100
C388        C  0.91927901  0.30466535  0.74552942    -0.09600
C389        C  0.94426149  0.33401828  0.76071421    -0.26200
S390        S  0.95944763  0.44984529  0.77878732    -0.03400
C391        C  0.92641264  0.44999363  0.75892779    -0.16800
C392        C  0.90627364  0.42285917  0.73651482    -0.14800
H393        H  0.87717326  0.36087440  0.70543596     0.20500
H394        H  0.97835294  0.39949572  0.78460739     0.16600
H395        H  0.96346618  0.33624981  0.77952864     0.19100
H396        H  0.88405399  0.41821128  0.72239595     0.12500
C397        C  0.60822152  0.53063060  0.88842463     0.16300
C398        C  0.59750115  0.54630697  0.91291783    -0.32700
C399        C  0.59908202  0.54210562  0.95318332     0.20700
C400        C  0.61000880  0.52252981  0.96853820     0.02900
C401        C  0.62028355  0.50644395  0.94403963    -0.22400
C402        C  0.61951247  0.51134722  0.90379037     0.12100
S403        S  0.61082523  0.53476755  0.83885048    -0.06100
C404        C  0.62831613  0.51115749  0.83894795    -0.09600
C405        C  0.63083596  0.49993556  0.87554720    -0.26200
S406        S  0.61080498  0.52144557  0.01825127    -0.03400
C407        C  0.59684915  0.54820837  0.01842284    -0.16800
C408        C  0.59142859  0.55675850  0.98152987    -0.14800
H409        H  0.58924628  0.56192772  0.90115397     0.20500
H410        H  0.62942923  0.49159282  0.95583538     0.16600
H411        H  0.64126613  0.48492243  0.88136654     0.19100
H412        H  0.58234170  0.57288543  0.97543696     0.12500
C413        C  0.35783139  0.27710106  0.98548148     0.16300
C414        C  0.37226750  0.26570275  0.96007183    -0.32700
C415        C  0.36712722  0.26739116  0.92014468     0.20700
C416        C  0.34927094  0.28061102  0.90592261     0.02900
C417        C  0.33540599  0.29256415  0.93127949    -0.22400
C418        C  0.33977824  0.29005861  0.97117699     0.12100
S419        S  0.35863683  0.27479701  0.03508451    -0.06100
C420        C  0.33359377  0.29059867  0.03632392    -0.09600
C421        C  0.32613835  0.29810852  0.00010320    -0.26200
S422        S  0.34434060  0.27873094  0.85662910    -0.03400
C423        C  0.36574440  0.25903948  0.85532326    -0.16800
C424        C  0.37687512  0.25523705  0.89119824    -0.14800
H425        H  0.38584699  0.25489213  0.97094148     0.20500
H426        H  0.32081533  0.30226414  0.92047334     0.16600
H427        H  0.31105339  0.30847794  0.99490037     0.19100
H428        H  0.39074013  0.24346790  0.89606049     0.12500
C429        C  0.48218058  0.44646145  0.11489077     0.16300
C430        C  0.46038565  0.41273386  0.10886445    -0.32700
C431        C  0.42842043  0.39866343  0.12337135     0.20700
C432        C  0.41892372  0.41714151  0.14378063     0.02900
C433        C  0.44084910  0.45057206  0.15047553    -0.22400
C434        C  0.47242170  0.46480554  0.13510347     0.12100
S435        S  0.52096978  0.46908553  0.09647510    -0.06100
C436        C  0.52366312  0.50370169  0.11547986    -0.09600
C437        C  0.49608784  0.49749671  0.13576555    -0.26200
S438        S  0.37858734  0.39662572  0.15603250    -0.03400
C439        C  0.37399854  0.36274345  0.13270410    -0.16800
C440        C  0.40276781  0.36724572  0.11725636    -0.14800
H441        H  0.46758058  0.39845696  0.09220043     0.20500
H442        H  0.43317663  0.46521419  0.16548412     0.16600
H443        H  0.49302346  0.51598299  0.14947764     0.19100
H444        H  0.40457239  0.34938036  0.10021758     0.12500
C445        C  0.98714589  0.28070238  0.89548279     0.16300
C446        C  0.01398573  0.29460798  0.92067890    -0.32700
C447        C  0.00763052  0.29102705  0.96079413     0.20700
C448        C  0.97604978  0.27482942  0.97550320     0.02900
C449        C  0.94912390  0.26103152  0.95025215    -0.22400
C450        C  0.95550144  0.26415503  0.91003387     0.12100
S451        S  0.98964956  0.28146472  0.84580093    -0.06100
C452        C  0.94753830  0.25863448  0.84444843    -0.09600
C453        C  0.93273315  0.25151156  0.88094200    -0.26200
S454        S  0.97397559  0.27280163  0.02535518    -0.03400
C455        C  0.01612771  0.29329098  0.02618035    -0.16800
C456        C  0.03055533  0.30173496  0.98955683    -0.14800
H457        H  0.03878403  0.30720931  0.90952081     0.20500
H458        H  0.92432116  0.24796329  0.96141965     0.16600
H459        H  0.90659473  0.23778635  0.88609866     0.19100
H460        H  0.05663381  0.31490915  0.98403280     0.12500
C461        C  0.17090952  0.32815847  0.10917080     0.16300
C462        C  0.20401193  0.34081302  0.11669955    -0.32700
C463        C  0.21571543  0.31965095  0.11246925     0.20700
C464        C  0.19545398  0.28732522  0.10110053     0.02900
C465        C  0.16220563  0.27458355  0.09352200    -0.22400
C466        C  0.15047235  0.29582138  0.09786878     0.12100
S467        S  0.15214262  0.34982488  0.11383872    -0.06100
C468        C  0.11595298  0.31489367  0.10079219    -0.09600
C469        C  0.11890702  0.28810019  0.09277262    -0.26200
S470        S  0.21477080  0.26600449  0.09723100    -0.03400
C471        C  0.25068664  0.30114863  0.11101507    -0.16800
C472        C  0.24723088  0.32771103  0.11836071    -0.14800
H473        H  0.21994556  0.36605409  0.12566722     0.20500
H474        H  0.14622143  0.24929035  0.08478214     0.16600
H475        H  0.09876268  0.26402176  0.08472958     0.19100
H476        H  0.26646323  0.35196928  0.12690907     0.12500
C477        C  0.97426561  0.52692329  0.99578715     0.16300
C478        C  0.94856274  0.50929591  0.96962745    -0.32700
C479        C  0.95574253  0.51523468  0.92974698     0.20700
C480        C  0.98711357  0.53729561  0.91628906     0.02900
C481        C  0.01285712  0.55476004  0.94246764    -0.22400
C482        C  0.00556695  0.54921239  0.98236865     0.12100
S483        S  0.97069035  0.52383010  0.04537068    -0.06100
C484        C  0.01179101  0.55328924  0.04819277    -0.09600
C485        C  0.02710843  0.56435581  0.01214741    -0.26200
S486        S  0.99029845  0.54185478  0.86671810    -0.03400
C487        C  0.94872590  0.51444573  0.86417612    -0.16800
C488        C  0.93375040  0.50187700  0.90005906    -0.14800
H489        H  0.92393369  0.49212985  0.97988718     0.20500
H490        H  0.03737192  0.57235796  0.93222134     0.16600
H491        H  0.05284330  0.58218052  0.00758226     0.19100
H492        H  0.90786208  0.48447004  0.90442730     0.12500
C493        C  0.05991460  0.42033646  0.14500436     0.16300
C494        C  0.07098893  0.45214301  0.15771839    -0.32700
C495        C  0.05291805  0.46630491  0.14680863     0.20700
C496        C  0.02464581  0.44940732  0.12488196     0.02900
C497        C  0.01320695  0.41722496  0.11264135    -0.22400
C498        C  0.03172285  0.40322803  0.12292587     0.12100
S499        S  0.08036148  0.40053119  0.15223648    -0.06100
C500        C  0.05108695  0.36889776  0.12448528    -0.09600
C501        C  0.02627065  0.37334469  0.11137602    -0.26200
S502        S  0.00762227  0.47205367  0.11267939    -0.03400
C503        C  0.03939356  0.50475801  0.13670243    -0.16800
C504        C  0.06133334  0.49784926  0.15394900    -0.14800
H505        H  0.09343406  0.46574868  0.17415907     0.20500
H506        H  0.99156331  0.40417263  0.09475019     0.16600
H507        H  0.00639131  0.35657498  0.09270963     0.19100
H508        H  0.08297768  0.51523269  0.16986901     0.12500
C509        C  0.35701924  0.89868451  0.91232837     0.16300
C510        C  0.34164342  0.87122035  0.93761465    -0.32700
C511        C  0.34676900  0.87678837  0.97779371     0.20700
C512        C  0.36691931  0.90811582  0.99222238     0.02900
C513        C  0.38258658  0.93551244  0.96695076    -0.22400
C514        C  0.37679281  0.93004565  0.92689063     0.12100
S515        S  0.35225310  0.89767988  0.86275769    -0.06100
C516        C  0.37633192  0.94006643  0.86183580    -0.09600
C517        C  0.38798801  0.95374094  0.89815979    -0.26200
S518        S  0.36918693  0.90963339  0.04194571    -0.03400
C519        C  0.34205469  0.86761716  0.04359186    -0.16800
C520        C  0.33258196  0.85353556  0.00698620    -0.14800
H521        H  0.32564145  0.84668649  0.92655234     0.20500
H522        H  0.39788788  0.96014227  0.97808854     0.16600
H523        H  0.40337749  0.97987089  0.90347697     0.19100
H524        H  0.31601543  0.82759756  0.00167426     0.12500
C525        C  0.15273254  0.68602026  0.12284524     0.16300
C526        C  0.17451692  0.71955692  0.11558530    -0.32700
C527        C  0.20781057  0.73179392  0.12110032     0.20700
C528        C  0.21900773  0.71176876  0.13406436     0.02900
C529        C  0.19713424  0.67809676  0.14146181    -0.22400
C530        C  0.16375424  0.66567810  0.13513086     0.12100
S531        S  0.11165284  0.66657070  0.11637469    -0.06100
C532        C  0.10898560  0.63007397  0.12898039    -0.09600
C533        C  0.13874605  0.63347604  0.13891600    -0.26200
S534        S  0.26042054  0.73185522  0.13964594    -0.03400
C535        C  0.26262989  0.76765920  0.12410481    -0.16800
C536        C  0.23260248  0.76362498  0.11500310    -0.14800
H537        H  0.16590884  0.73536812  0.10560167     0.20500
H538        H  0.20576145  0.66225234  0.15122942     0.16600
H539        H  0.14237650  0.61380652  0.14792496     0.19100
H540        H  0.22912456  0.78329201  0.10521890     0.12500
C541        C  0.61291217  0.90653153  0.96950651     0.16300
C542        C  0.62650211  0.93328029  0.94321570    -0.32700
C543        C  0.62188960  0.92630528  0.90335258     0.20700
C544        C  0.60387528  0.89427775  0.89016452     0.02900
C545        C  0.59001473  0.86759313  0.91645622    -0.22400
C546        C  0.59534223  0.87450690  0.95623328     0.12100
S547        S  0.61718932  0.90943349  0.01896755    -0.06100
C548        C  0.59585462  0.86700484  0.02167855    -0.09600
C549        C  0.58545451  0.85181417  0.98592593    -0.26200
S550        S  0.60197836  0.89104335  0.84062586    -0.03400
C551        C  0.62657394  0.93326730  0.83751939    -0.16800
C552        C  0.63481510  0.94874921  0.87334117    -0.14800
H553        H  0.64079064  0.95836801  0.95331569     0.20500
H554        H  0.57643107  0.84248634  0.90631882     0.16600
H555        H  0.57154691  0.82546340  0.98165882     0.19100
H556        H  0.64982272  0.97508398  0.87741504     0.12500
C557        C  0.56000864  0.71220598  0.11188959     0.16300
C558        C  0.54710311  0.67847368  0.11898779    -0.32700
C559        C  0.56577370  0.66521263  0.10706438     0.20700
C560        C  0.59617317  0.68485603  0.08975526     0.02900
C561        C  0.60922558  0.71852991  0.08319669    -0.22400
C562        C  0.59033079  0.73158084  0.09431668     0.12100
S563        S  0.54088625  0.73301407  0.12247269    -0.06100
C564        C  0.57405206  0.76815135  0.10256858    -0.09600
C565        C  0.59851501  0.76350635  0.08907640    -0.26200
S566        S  0.61505831  0.66447064  0.07724217    -0.03400
C567        C  0.58141226  0.62855718  0.09472186    -0.16800
C568        C  0.55712463  0.63283943  0.11010587    -0.14800
H569        H  0.52335198  0.66315350  0.13254176     0.20500
H570        H  0.63289624  0.73381492  0.06942910     0.16600
H571        H  0.62121143  0.78269319  0.07599901     0.19100
H572        H  0.53455141  0.61372213  0.12330573     0.12500
C573        C  0.49006226  0.86012888  0.12197297     0.16300
C574        C  0.46979390  0.87275772  0.11494425    -0.32700
C575        C  0.43836022  0.85573629  0.13157975     0.20700
C576        C  0.42817105  0.82811030  0.15510720     0.02900
C577        C  0.44857720  0.81594200  0.16270020    -0.22400
C578        C  0.47942519  0.83222641  0.14509498     0.12100
S579        S  0.52755312  0.87476102  0.10122952    -0.06100
C580        C  0.52830678  0.84230490  0.12305079    -0.09600
C581        C  0.50123384  0.82200732  0.14601265    -0.26200
S582        S  0.38852632  0.80892352  0.16962315    -0.03400
C583        C  0.38486370  0.83763823  0.14265905    -0.16800
C584        C  0.41360866  0.86162797  0.12469042    -0.14800
H585        H  0.47756382  0.89388977  0.09586224     0.20500
H586        H  0.44011048  0.79369915  0.17997113     0.16600
H587        H  0.49710072  0.80023751  0.16161051     0.19100
H588        H  0.41566329  0.88071939  0.10525216     0.12500
C589        C  0.80945290  0.04165150  0.17883573     0.16300
C590        C  0.84299258  0.06322673  0.17430784    -0.32700
C591        C  0.85583846  0.09589210  0.18459803     0.20700
C592        C  0.83627100  0.10717953  0.19789912     0.02900
C593        C  0.80228568  0.08557488  0.20159704    -0.22400
C594        C  0.78942077  0.05241107  0.19217345     0.12100
S595        S  0.79049664  0.00050284  0.17219041    -0.06100
C596        C  0.75501329  0.99728483  0.18784518    -0.09600
C597        C  0.75770367  0.02680415  0.19708202    -0.26200
S598        S  0.85774703  0.14752590  0.21179002    -0.03400
C599        C  0.89306538  0.14828190  0.20036985    -0.16800
C600        C  0.88820601  0.11931075  0.18566510    -0.14800
H601        H  0.85867032  0.05456396  0.16491905     0.20500
H602        H  0.78684687  0.09387161  0.21290746     0.16600
H603        H  0.73808966  0.02912738  0.20868253     0.19100
H604        H  0.90754153  0.11511233  0.17775647     0.12500
C605        C  0.17175198  0.23217227  0.21664137     0.16300
C606        C  0.15378608  0.24762205  0.21782569    -0.32700
C607        C  0.12001251  0.22812137  0.21186201     0.20700
C608        C  0.10478820  0.19484752  0.20382972     0.02900
C609        C  0.12301099  0.17956138  0.20133341    -0.22400
C610        C  0.15678223  0.19892067  0.20853848     0.12100
S611        S  0.21232995  0.25112181  0.22697132    -0.06100
C612        C  0.20929909  0.21387041  0.22077505    -0.09600
C613        C  0.17841482  0.18827107  0.21047788    -0.26200
S614        S  0.06309850  0.17512078  0.20065334    -0.03400
C615        C  0.06642201  0.21200006  0.21112667    -0.16800
C616        C  0.09819647  0.23815737  0.21558741    -0.14800
H617        H  0.16543109  0.27345445  0.22478040     0.20500
H618        H  0.11119726  0.15348408  0.19570663     0.16600
H619        H  0.17205633  0.16323787  0.20540904     0.19100
H620        H  0.10490894  0.26298926  0.22265760     0.12500
C621        C  0.65819596  0.71586127  0.20982168     0.16300
C622        C  0.64481537  0.73563486  0.21146316    -0.32700
C623        C  0.66649759  0.76967067  0.21088358     0.20700
C624        C  0.70010001  0.78368157  0.20819463     0.02900
C625        C  0.71356678  0.76381393  0.20615024    -0.22400
C626        C  0.69178069  0.72958680  0.20723211     0.12100
S627        S  0.63574418  0.67406991  0.21200318    -0.06100
C628        C  0.67193706  0.67495742  0.20981310    -0.09600
C629        C  0.69986552  0.70601679  0.20690155    -0.26200
S630        S  0.72198525  0.82575414  0.20809346    -0.03400
C631        C  0.68532081  0.82397623  0.21209792    -0.16800
C632        C  0.65791534  0.79263432  0.21315652    -0.14800
H633        H  0.61862222  0.72494009  0.21366499     0.20500
H634        H  0.73976838  0.77450233  0.20430647     0.16600
H635        H  0.72461343  0.71102394  0.20541627     0.19100
H636        H  0.63294812  0.78694351  0.21528634     0.12500
C637        C  0.82683421  0.55115621  0.21629733     0.16300
C638        C  0.79324528  0.53839326  0.22109442    -0.32700
C639        C  0.78019665  0.55589041  0.20378879     0.20700
C640        C  0.79964631  0.58445843  0.18208226     0.02900
C641        C  0.83303136  0.59691895  0.17681607    -0.22400
C642        C  0.84616067  0.57986532  0.19481957     0.12100
S643        S  0.84794728  0.53506548  0.23725687    -0.06100
C644        C  0.88310910  0.56771454  0.21740003    -0.09600
C645        C  0.87845783  0.58950545  0.19541088    -0.26200
S646        S  0.78026659  0.60392492  0.16659666    -0.03400
C647        C  0.74569712  0.57366407  0.19017026    -0.16800
C648        C  0.74889774  0.54928528  0.20811518    -0.14800
H649        H  0.77821616  0.51650067  0.23871822     0.20500
H650        H  0.84837627  0.61967331  0.16072585     0.16600
H651        H  0.89782781  0.61167624  0.18135733     0.19100
H652        H  0.73015252  0.52926407  0.22567889     0.12500
C653        C  0.16890843  0.76020377  0.23958243     0.16300
C654        C  0.14775035  0.72611049  0.24297129    -0.32700
C655        C  0.11428709  0.71357847  0.23829889     0.20700
C656        C  0.10226766  0.73390036  0.23015230     0.02900
C657        C  0.12350414  0.76803945  0.22634241    -0.22400
C658        C  0.15702385  0.78065427  0.23146357     0.12100
S659        S  0.21025291  0.78019020  0.24518092    -0.06100
C660        C  0.21156806  0.81651233  0.23659478    -0.09600
C661        C  0.18150743  0.81312284  0.22962516    -0.26200
S662        S  0.06064921  0.71368852  0.22642383    -0.03400
C663        C  0.05969059  0.67771301  0.23641181    -0.16800
C664        C  0.08996400  0.68129571  0.24174031    -0.14800
H665        H  0.15692614  0.71008352  0.24943892     0.20500
H666        H  0.11429819  0.78407610  0.22014851     0.16600
H667        H  0.17780907  0.83329952  0.22351096     0.19100
H668        H  0.09393443  0.66133650  0.24819418     0.12500
C669        C  0.29540347  0.03424845  0.18488523     0.16300
C670        C  0.28151289  0.05350285  0.17948926    -0.32700
C671        C  0.30058197  0.08689938  0.18864101     0.20700
C672        C  0.33253598  0.10097088  0.20154565     0.02900
C673        C  0.34673424  0.08172096  0.20632228    -0.22400
C674        C  0.32722057  0.04790232  0.19820010     0.12100
S675        S  0.27463654  0.99265831  0.17955371    -0.06100
C676        C  0.30879858  0.99314651  0.19616604    -0.09600
C677        C  0.33518880  0.02431435  0.20450336    -0.26200
S678        S  0.35049937  0.14163566  0.21357988    -0.03400
C679        C  0.31417467  0.13907197  0.20204522    -0.16800
C680        C  0.29004787  0.10857696  0.18870340    -0.14800
H681        H  0.25634423  0.04257420  0.17021567     0.20500
H682        H  0.37134380  0.09230926  0.21745605     0.16600
H683        H  0.35818834  0.02919618  0.21654244     0.19100
H684        H  0.26548650  0.10214929  0.18100886     0.12500
C685        C  0.64351903  0.90301874  0.39556110     0.16300
C686        C  0.63088779  0.90338666  0.43232751    -0.32700
C687        C  0.64362429  0.89581991  0.46518241     0.20700
C688        C  0.66778953  0.88836133  0.46127000     0.02900
C689        C  0.68036830  0.88814303  0.42489939    -0.22400
C690        C  0.66774822  0.89562040  0.39240992     0.12100
S691        S  0.63158758  0.91093686  0.35159071    -0.06100
C692        C  0.65976728  0.90426824  0.32940538    -0.09600
C693        C  0.67713359  0.89640195  0.35489103    -0.26200
S694        S  0.68087382  0.88054778  0.50371916    -0.03400
C695        C  0.65368591  0.88737654  0.52776944    -0.16800
C696        C  0.63527095  0.89521709  0.50365665    -0.14800
H697        H  0.61207570  0.90928899  0.43518996     0.20500
H698        H  0.69934307  0.88244744  0.42204443     0.16600
H699        H  0.69562600  0.89116536  0.34633943     0.19100
H700        H  0.61757737  0.90104439  0.51372733     0.12500
C701        C  0.64061156  0.56681687  0.46412622     0.16300
C702        C  0.62711969  0.55484987  0.42715501    -0.32700
C703        C  0.64713745  0.57054110  0.39432085     0.20700
C704        C  0.67892759  0.59698977  0.39848051     0.02900
C705        C  0.69216000  0.60903674  0.43507216    -0.22400
C706        C  0.67237330  0.59338550  0.46757708     0.12100
S707        S  0.62128219  0.55107363  0.50801543    -0.06100
C708        C  0.65640022  0.58091376  0.53070108    -0.09600
C709        C  0.68144210  0.60157972  0.50538464    -0.26200
S710        S  0.69979651  0.61269567  0.35613579    -0.03400
C711        C  0.66567042  0.58335637  0.33180148    -0.16800
C712        C  0.63922160  0.56257348  0.35572846    -0.14800
H713        H  0.60233947  0.53410655  0.42415303     0.20500
H714        H  0.71702733  0.62965707  0.43809657     0.16600
H715        H  0.70534950  0.62149191  0.51423648     0.19100
H716        H  0.61571148  0.54291557  0.34553754     0.12500
C717        C  0.67024363  0.72196665  0.68700086     0.16300
C718        C  0.68282914  0.75550347  0.69158742    -0.32700
C719        C  0.66151371  0.76682308  0.68624862     0.20700
C720        C  0.62873559  0.74571838  0.67752224     0.02900
C721        C  0.61583823  0.71171368  0.67364295    -0.22400
C722        C  0.63754707  0.70039394  0.67811972     0.12100
S723        S  0.69352653  0.70483891  0.68859169    -0.06100
C724        C  0.65923342  0.66799181  0.67660191    -0.09600
C725        C  0.63091901  0.66894015  0.67230674    -0.26200
S726        S  0.60799607  0.76553157  0.66890360    -0.03400
C727        C  0.64420786  0.80233299  0.67644176    -0.16800
C728        C  0.67037290  0.79904720  0.68602859    -0.14800
H729        H  0.70856994  0.77234027  0.69744281     0.20500
H730        H  0.59047262  0.69512995  0.66588715     0.16600
H731        H  0.60736472  0.64829877  0.66375168     0.19100
H732        H  0.69517689  0.81940355  0.69049649     0.12500
C733        C  0.98369914  0.56351072  0.42777882     0.16300
C734        C  0.98225690  0.55118615  0.46572632    -0.32700
C735        C  0.99289636  0.57361608  0.49656903     0.20700
C736        C  0.00504268  0.60681011  0.48957528     0.02900
C737        C  0.00666562  0.61904732  0.45192296    -0.22400
C738        C  0.99536019  0.59665391  0.42145928     0.12100
S739        S  0.97095608  0.54067341  0.38614488    -0.06100
C740        C  0.98074967  0.57616541  0.36055223    -0.09600
C741        C  0.99360549  0.60395723  0.38326859    -0.26200
S742        S  0.01502841  0.62999220  0.53017919    -0.03400
C743        C  0.00212582  0.59471202  0.55753297    -0.16800
C744        C  0.99131839  0.56647104  0.53583805    -0.14800
H745        H  0.97253142  0.52521897  0.47105636     0.20500
H746        H  0.01550125  0.64486209  0.44670921     0.16600
H747        H  0.00132047  0.62842509  0.37233883     0.19100
H748        H  0.98130596  0.54195413  0.54808415     0.12500
C749        C  0.84631728  0.58016400  0.64541280     0.16300
C750        C  0.81282996  0.56606362  0.63851472    -0.32700
C751        C  0.79971189  0.58597106  0.64365871     0.20700
C752        C  0.81899593  0.61844278  0.65521095     0.02900
C753        C  0.85244478  0.63248518  0.66228296    -0.22400
C754        C  0.86558574  0.61260567  0.65708558     0.12100
S755        S  0.86686037  0.56008305  0.64112515    -0.06100
C756        C  0.90171901  0.59577939  0.65527285    -0.09600
C757        C  0.89746533  0.62170957  0.66284342    -0.26200
S758        S  0.79836671  0.63838982  0.66016083    -0.03400
C759        C  0.76345730  0.60258989  0.64651554    -0.16800
C760        C  0.76772868  0.57670147  0.63867454    -0.14800
H761        H  0.79765782  0.54068476  0.62965986     0.20500
H762        H  0.86754245  0.65775711  0.67153423     0.16600
H763        H  0.91657492  0.64577139  0.67247499     0.19100
H764        H  0.74839973  0.55231707  0.63025982     0.12500
C765        C  0.29621300  0.90926027  0.41667717     0.16300
C766        C  0.28252241  0.90521487  0.45361040    -0.32700
C767        C  0.30024418  0.90450672  0.48560961     0.20700
C768        C  0.33057093  0.90791421  0.48140514     0.02900
C769        C  0.34430180  0.91167965  0.44402440    -0.22400
C770        C  0.32628608  0.91217896  0.41164192     0.12100
S771        S  0.27767403  0.91015440  0.37484122    -0.06100
C772        C  0.31021814  0.91383778  0.34935248    -0.09600
C773        C  0.33456918  0.91483321  0.37268025    -0.26200
S774        S  0.34832145  0.90779563  0.52503009    -0.03400
C775        C  0.31433460  0.90305842  0.54862975    -0.16800
C776        C  0.29077394  0.90138941  0.52364729    -0.14800
H777        H  0.25892663  0.90274884  0.45726823     0.20500
H778        H  0.36789921  0.91418033  0.44037024     0.16600
H779        H  0.35655144  0.91657375  0.36178898     0.19100
H780        H  0.26808129  0.89900073  0.53293254     0.12500
C781        C  0.12313744  0.72807727  0.72272405     0.16300
C782        C  0.14522179  0.76142687  0.72968015    -0.32700
C783        C  0.17763134  0.77487439  0.71760928     0.20700
C784        C  0.18811166  0.75585192  0.70046755     0.02900
C785        C  0.16611203  0.72203935  0.69455100    -0.22400
C786        C  0.13327027  0.70872874  0.70561761     0.12100
S787        S  0.08201315  0.70892126  0.72991480    -0.06100
C788        C  0.07804121  0.67438277  0.70937213    -0.09600
C789        C  0.10736242  0.67750449  0.69839150    -0.26200
S790        S  0.22783340  0.77805670  0.68427466    -0.03400
C791        C  0.22967782  0.81319468  0.69988259    -0.16800
C792        C  0.20136000  0.80756730  0.71765714    -0.14800
H793        H  0.13705447  0.77671745  0.74189696     0.20500
H794        H  0.17382331  0.70722493  0.68005007     0.16600
H795        H  0.10935386  0.65879992  0.68347625     0.19100
H796        H  0.19764346  0.82671510  0.72799150     0.12500
C797        C  0.31871315  0.24624127  0.47650700     0.16300
C798        C  0.33142154  0.25818637  0.43886093    -0.32700
C799        C  0.31584100  0.23689746  0.40733275     0.20700
C800        C  0.28906056  0.20534772  0.41341970     0.02900
C801        C  0.27653433  0.19361497  0.45058486    -0.22400
C802        C  0.29180138  0.21469547  0.48167732     0.12100
S803        S  0.33359952  0.26718060  0.51932477    -0.06100
C804        C  0.30292924  0.23286965  0.54367237    -0.09600
C805        C  0.28265914  0.20707654  0.51966006    -0.26200
S806        S  0.27273564  0.18313381  0.37254878    -0.03400
C807        C  0.30197708  0.21643734  0.34606661    -0.16800
C808        C  0.32354788  0.24348205  0.36827715    -0.14800
H809        H  0.35233394  0.28283783  0.43435978     0.20500
H810        H  0.25552790  0.16899359  0.45508156     0.16600
H811        H  0.26239386  0.18346051  0.52960776     0.19100
H812        H  0.34310078  0.26672557  0.35651647     0.12500
C813        C  0.27248652  0.02552475  0.65949162     0.16300
C814        C  0.25716936  0.04376473  0.65977337    -0.32700
C815        C  0.27728024  0.07822305  0.65879259     0.20700
C816        C  0.31112257  0.09378657  0.65781903     0.02900
C817        C  0.32641586  0.07559125  0.65789161    -0.22400
C818        C  0.30632811  0.04119967  0.65852046     0.12100
S819        S  0.25255152  0.98351009  0.66013903    -0.06100
C820        C  0.29021998  0.98722557  0.65866844    -0.09600
C821        C  0.31664402  0.01934449  0.65806430    -0.26200
S822        S  0.33128650  0.13568130  0.65628123    -0.03400
C823        C  0.29377427  0.13229576  0.65697206    -0.16800
C824        C  0.26712801  0.10029605  0.65848990    -0.14800
H825        H  0.23076125  0.03164067  0.66048205     0.20500
H826        H  0.35283537  0.08772089  0.65716824     0.16600
H827        H  0.34206805  0.02632303  0.65763055     0.19100
H828        H  0.24180231  0.09358998  0.65927319     0.12500
C829        C  0.00449335  0.22686358  0.47254654     0.16300
C830        C  0.00645391  0.21637554  0.43561290    -0.32700
C831        C  0.99853145  0.22942645  0.40382286     0.20700
C832        C  0.98959668  0.25253166  0.40812754     0.02900
C833        C  0.98785248  0.26335702  0.44543671    -0.22400
C834        C  0.99530331  0.24973340  0.47762751     0.12100
S835        S  0.01059413  0.21139746  0.51434286    -0.06100
C836        C  0.00016618  0.23539397  0.53965077    -0.09600
C837        C  0.99304620  0.25502636  0.51648390    -0.26200
S838        S  0.98072932  0.26473981  0.36487066    -0.03400
C839        C  0.98885922  0.23799172  0.34143992    -0.16800
C840        C  0.99801046  0.22099216  0.36602948    -0.14800
H841        H  0.01309429  0.19809022  0.43186658     0.20500
H842        H  0.98037017  0.28097667  0.44924864     0.16600
H843        H  0.98498019  0.27080235  0.52737860     0.19100
H844        H  0.00409234  0.20324231  0.35667243     0.12500
C845        C  0.78924774  0.03975731  0.63362210     0.16300
C846        C  0.80979231  0.07391389  0.62877221    -0.32700
C847        C  0.84297669  0.08784302  0.63769049     0.20700
C848        C  0.85510144  0.06860222  0.65079968     0.02900
C849        C  0.83462234  0.03449479  0.65541192    -0.22400
C850        C  0.80150299  0.02059074  0.64655971     0.12100
S851        S  0.74817653  0.01819735  0.62529886    -0.06100
C852        C  0.74768463  0.98309595  0.63924613    -0.09600
C853        C  0.77772861  0.98797359  0.64980542    -0.26200
S854        S  0.89578050  0.09003189  0.66109176    -0.03400
C855        C  0.89656240  0.12531257  0.64758896    -0.16800
C856        C  0.86680550  0.12058491  0.63562205    -0.14800
H857        H  0.80029229  0.08896862  0.61884133     0.20500
H858        H  0.84404730  0.01948655  0.66579003     0.16600
H859        H  0.78186789  0.96877475  0.65972114     0.19100
H860        H  0.86276939  0.14003202  0.62652566     0.12500
C861        C  0.17364237  0.24616992  0.68002933     0.16300
C862        C  0.15426269  0.25991144  0.67435656    -0.32700
C863        C  0.12113304  0.24065874  0.68480622     0.20700
C864        C  0.10796395  0.20927223  0.70073810     0.02900
C865        C  0.12740816  0.19565497  0.70681228    -0.22400
C866        C  0.16040565  0.21470600  0.69572437     0.12100
S867        S  0.21386192  0.26475480  0.66697017    -0.06100
C868        C  0.21271289  0.22961202  0.68233895    -0.09600
C869        C  0.18272720  0.20504147  0.69706411    -0.26200
S870        S  0.06680075  0.18893103  0.70869386    -0.03400
C871        C  0.06726891  0.22290821  0.68988583    -0.16800
C872        C  0.09789149  0.24874476  0.67881457    -0.14800
H873        H  0.16434166  0.28416494  0.66128143     0.20500
H874        H  0.11702894  0.17089522  0.71847138     0.16600
H875        H  0.17735082  0.18110229  0.70733099     0.19100
H876        H  0.10258743  0.27142855  0.66507570     0.12500
loop_ 
_geom_bond_atom_site_label_1 
_geom_bond_atom_site_label_2 
_geom_bond_distance 
_geom_bond_site_symmetry_2 
_ccdc_geom_bond_type 
In1           O3   2.255       .  S
In1           O4   2.231       .  S
In1          O12   2.215       .  S
In1           O6   2.282       .  S
In1           O8   2.269       .  S
In1           O9   2.217   1_655  S
In1          O10   2.235       .  S
In1          O13   2.255   1_655  S
C2            O8   1.262       .  A
C2           O10   1.256       .  A
C2          C248   1.468       .  S
O3           C11   1.259       .  A
O4           C11   1.257       .  A
C5           O12   1.258       .  A
C5            O6   1.265       .  A
C5          C836   1.472   1_655  S
C7            O9   1.259       .  A
C7           O13   1.267       .  A
C7          C871   1.468       .  S
C11         C855   1.463       .  S
In14         O16   2.249       .  S
In14         O17   2.238       .  S
In14         O25   2.207       .  S
In14         O19   2.284       .  S
In14         O21   2.272       .  S
In14         O22   2.251       .  S
In14         O23   2.216       .  S
In14         O26   2.222       .  S
C15          O21   1.267       .  A
C15          O23   1.259       .  A
C15         C291   1.471       .  S
O16          C24   1.263       .  A
O17          C24   1.261       .  A
C18          O25   1.260       .  A
C18          O19   1.268       .  A
C18         C804   1.476       .  S
C20          O22   1.266       .  A
C20          O26   1.261       .  A
C20         C823   1.466       .  S
C24         C868   1.470       .  S
In27         O29   2.237       .  S
In27         O30   2.244       .  S
In27         O38   2.228       .  S
In27         O32   2.296       .  S
In27         O34   2.291       .  S
In27         O35   2.225       .  S
In27         O36   2.223       .  S
In27         O39   2.274       .  S
C28          O34   1.267       .  A
C28          O36   1.256       .  A
C28         C260   1.477       .  S
O29          C37   1.263       .  A
O30          C37   1.263       .  A
C31          O38   1.259       .  A
C31          O32   1.267       .  A
C31         C775   1.484       .  S
C33          O35   1.258       .  A
C33          O39   1.263       .  A
C33         C791   1.472       .  S
C37         C820   1.468       .  S
In40         O42   2.258   1_655  S
In40         O43   2.224   1_655  S
In40         O51   2.212   1_655  S
In40         O45   2.280       .  S
In40         O47   2.271       .  S
In40         O48   2.239       .  S
In40         O49   2.211       .  S
In40         O52   2.228       .  S
C41          O47   1.268       .  A
C41          O49   1.257       .  A
C41         C231   1.469       .  S
O42          C50   1.264       .  A
O43          C50   1.261       .  A
C44          O51   1.260   1_655  A
C44          O45   1.268       .  A
C44         C743   1.475   1_655  S
C46          O48   1.266       .  A
C46          O52   1.261       .  A
C46         C756   1.464       .  S
C50         C788   1.470       .  S
In53         O55   2.234       .  S
In53         O56   2.233       .  S
In53         O64   2.221       .  S
In53         O58   2.281       .  S
In53         O60   2.274       .  S
In53         O61   2.204       .  S
In53         O62   2.221       .  S
In53         O65   2.280       .  S
C54          O60   1.265       .  A
C54          O62   1.256       .  A
C54         C284   1.469       .  S
O55          C63   1.263       .  A
O56          C63   1.262       .  A
C57          O64   1.258       .  A
C57          O58   1.266       .  A
C57         C708   1.476       .  S
C59          O61   1.256       .  A
C59          O65   1.264       .  A
C59         C724   1.467       .  S
C63         C759   1.463       .  S
In66         O68   2.264       .  S
In66         O69   2.209       .  S
In66         O77   2.207       .  S
In66         O71   2.282       .  S
In66         O73   2.272       .  S
In66         O74   2.240       .  S
In66         O75   2.211       .  S
In66         O78   2.222       .  S
C67          O73   1.268       .  A
C67          O75   1.259       .  A
C67         C267   1.470       .  S
O68          C76   1.266       .  A
O69          C76   1.261       .  A
C70          O77   1.259       .  A
C70          O71   1.269       .  A
C70         C695   1.474       .  S
C72          O74   1.265       .  A
C72          O78   1.260       .  A
C72         C852   1.462       .  S
C76         C727   1.470       .  S
In79         O81   2.236       .  S
In79         O82   2.243       .  S
In79         O90   2.217       .  S
In79         O84   2.298       .  S
In79         O86   2.285       .  S
In79         O87   2.222       .  S
In79         O88   2.228       .  S
In79         O91   2.276       .  S
C80          O86   1.266       .  A
C80          O88   1.257       .  A
C80         C176   1.476       .  S
O81          C89   1.260       .  A
O82          C89   1.262       .  A
C83          O90   1.258       .  A
C83          O84   1.268       .  A
C83         C772   1.480       .  S
C85          O87   1.258       .  A
C85          O91   1.265       .  A
C85         C676   1.474       .  S
C89         C660   1.464       .  S
In92         O94   2.259       .  S
In92         O95   2.224       .  S
In92        O103   2.226       .  S
In92         O97   2.281       .  S
In92         O99   2.269       .  S
In92        O100   2.244   1_655  S
In92        O101   2.231       .  S
In92        O104   2.218   1_655  S
C93          O99   1.264       .  A
C93         O101   1.256       .  A
C93         C183   1.468   1_655  S
O94         C102   1.263       .  A
O95         C102   1.258       .  A
C96         O103   1.259       .  A
C96          O97   1.266       .  A
C96         C740   1.478       .  S
C98         O100   1.263       .  A
C98         O104   1.260       .  A
C98         C663   1.461       .  S
C102        C644   1.467       .  S
In105       O107   2.213       .  S
In105       O108   2.235       .  S
In105       O116   2.204       .  S
In105       O110   2.290       .  S
In105       O112   2.270       .  S
In105       O113   2.205       .  S
In105       O114   2.207       .  S
In105       O117   2.256       .  S
C106        O112   1.269       .  A
C106        O114   1.257       .  A
C106        C224   1.467       .  S
O107        C115   1.261       .  A
O108        C115   1.264       .  A
C109        O116   1.259       .  A
C109        O110   1.269       .  A
C109        C711   1.476       .  S
C111        O113   1.259       .  A
C111        O117   1.266       .  A
C111        C647   1.464       .  S
C115        C628   1.457       .  S
In118       O120   2.266       .  S
In118       O121   2.228       .  S
In118       O129   2.209       .  S
In118       O123   2.281       .  S
In118       O125   2.258       .  S
In118       O126   2.262       .  S
In118       O127   2.210       .  S
In118       O130   2.218       .  S
C119        O125   1.268       .  A
C119        O127   1.258       .  A
C119        C207   1.464       .  S
O120        C128   1.265       .  A
O121        C128   1.262       .  A
C122        O129   1.261       .  A
C122        O123   1.268       .  A
C122        C807   1.475       .  S
C124        O126   1.267       .  A
C124        O130   1.260       .  A
C124        C612   1.469       .  S
C128        C679   1.475       .  S
In131       O133   2.239   1_655  S
In131       O134   2.253   1_655  S
In131       O142   2.220       .  S
In131       O136   2.285       .  S
In131       O138   2.248   1_655  S
In131       O139   2.199       .  S
In131       O140   2.228       .  S
In131       O143   2.264       .  S
C132        O138   1.264       .  A
C132        O140   1.256   1_455  A
C132        C200   1.461       .  S
O133        C141   1.262       .  A
O134        C141   1.262       .  A
C135        O142   1.259       .  A
C135        O136   1.264       .  A
C135        C839   1.476       .  S
C137        O139   1.259       .  A
C137        O143   1.263       .  A
C137        C599   1.462       .  S
C141        C615   1.470       .  S
In144       O146   2.264       .  S
In144       O147   2.201       .  S
In144       O155   2.216       .  S
In144       O149   2.284       .  S
In144       O151   2.261       .  S
In144       O152   2.240       .  S
In144       O153   2.228       .  S
In144       O156   2.219       .  S
C145        O151   1.263       .  A
C145        O153   1.256       .  A
C145        C159   1.464       .  S
O146        C154   1.262       .  A
O147        C154   1.255       .  A
C148        O155   1.257       .  A
C148        O149   1.264       .  A
C148        C692   1.474       .  S
C150        O152   1.262       .  A
C150        O156   1.262       .  A
C150        C631   1.459       .  S
C154        C596   1.460       .  S
C157        C158   1.524       .  S
C157        C163   1.533       .  S
C157        C161   1.539       .  S
C157        C564   1.515       .  S
C158        H165   1.088       .  S
C158        C159   1.359       .  D
C159        C160   1.537       .  S
C160        C164   1.546       .  S
C160        C162   1.539       .  S
C160        H166   1.110       .  S
C161        H167   1.084       .  S
C161        C162   1.373       .  D
C162        C580   1.480       .  S
C163        H168   1.085       .  S
C163        C164   1.370       .  D
C164        C548   1.484       .  S
C169        C170   1.531       .  S
C169        C175   1.524       .  S
C169        C173   1.528       .  S
C169        C535   1.511       .  S
C170        H177   1.085       .  S
C170        C171   1.371       .  D
C171        C519   1.493       .  S
C171        C172   1.555       .  S
C172        C176   1.548       .  S
C172        C174   1.547       .  S
C172        H178   1.109       .  S
C173        H179   1.084       .  S
C173        C174   1.367       .  D
C174        C583   1.479       .  S
C175        H180   1.088       .  S
C175        C176   1.361       .  D
C181        C182   1.520       .  S
C181        C187   1.530       .  S
C181        C185   1.536       .  S
C181        C532   1.510       .  S
C182        H189   1.087       .  S
C182        C183   1.360       .  D
C183        C184   1.543       .  S
C184        C188   1.549       .  S
C184        C186   1.542       .  S
C184        H190   1.109   1_455  S
C185        H191   1.082       .  S
C185        C186   1.372       .  D
C186        C503   1.478       .  S
C187        H192   1.085       .  S
C187        C188   1.367       .  D
C188        C484   1.488       .  S
C193        C194   1.526       .  S
C193        C199   1.522       .  S
C193        C197   1.534       .  S
C193        C468   1.510       .  S
C194        H201   1.085       .  S
C194        C195   1.370       .  D
C195        C455   1.486       .  S
C195        C196   1.552       .  S
C196        C200   1.540       .  S
C196        C198   1.542       .  S
C196        H202   1.110       .  S
C197        H203   1.084       .  S
C197        C198   1.366       .  D
C198        C500   1.476       .  S
C199        H204   1.088       .  S
C199        C200   1.360       .  D
C205        C206   1.523       .  S
C205        C211   1.525       .  S
C205        C209   1.541       .  S
C205        C471   1.514       .  S
C206        H213   1.086       .  S
C206        C207   1.363       .  D
C207        C208   1.536       .  S
C208        C212   1.543       .  S
C208        C210   1.540       .  S
C208        H214   1.109       .  S
C209        H215   1.081       .  S
C209        C210   1.370       .  D
C210        C439   1.479       .  S
C211        H216   1.085       .  S
C211        C212   1.366       .  D
C212        C420   1.476       .  S
C217        C218   1.531       .  S
C217        C223   1.521       .  S
C217        C221   1.540       .  S
C217        C567   1.516       .  S
C218        H225   1.085       .  S
C218        C219   1.370       .  D
C219        C407   1.487       .  S
C219        C220   1.549       .  S
C220        C224   1.538       .  S
C220        C222   1.540       .  S
C220        H226   1.109       .  S
C221        H227   1.082       .  S
C221        C222   1.374       .  D
C222        C436   1.480       .  S
C223        H228   1.088       .  S
C223        C224   1.359       .  D
C229        C230   1.528       .  S
C229        C235   1.533       .  S
C229        C233   1.533       .  S
C229        C375   1.517       .  S
C230        H237   1.087       .  S
C230        C231   1.363       .  D
C231        C232   1.538       .  S
C232        C236   1.547       .  S
C232        C234   1.540       .  S
C232        H238   1.110       .  S
C233        H239   1.085       .  S
C233        C234   1.373       .  D
C234        C391   1.479       .  S
C235        H240   1.083       .  S
C235        C236   1.364       .  D
C236        C487   1.483       .  S
C241        C242   1.528       .  S
C241        C247   1.523       .  S
C241        C245   1.529       .  S
C241        C356   1.509       .  S
C242        H249   1.085       .  S
C242        C243   1.369       .  D
C243        C452   1.487       .  S
C243        C244   1.554       .  S
C244        C248   1.546       .  S
C244        C246   1.546       .  S
C244        H250   1.110       .  S
C245        H251   1.083       .  S
C245        C246   1.367       .  D
C246        C388   1.480       .  S
C247        H252   1.088       .  S
C247        C248   1.359       .  D
C253        C254   1.526   1_545  S
C253        C259   1.528   1_545  S
C253        C257   1.535       .  S
C253        C324   1.515       .  S
C254        H261   1.086   1_565  S
C254        C255   1.369       .  D
C255        C516   1.488       .  S
C255        C256   1.555       .  S
C256        C260   1.546       .  S
C256        C258   1.545       .  S
C256        H262   1.109       .  S
C257        H263   1.083       .  S
C257        C258   1.368   1_545  D
C258        C340   1.482       .  S
C259        H264   1.088       .  S
C259        C260   1.363       .  D
C265        C266   1.521       .  S
C265        C271   1.528       .  S
C265        C269   1.540       .  S
C265        C359   1.511   1_565  S
C266        H273   1.088       .  S
C266        C267   1.359       .  D
C267        C268   1.543       .  S
C268        C272   1.549       .  S
C268        C270   1.545       .  S
C268        H274   1.109       .  S
C269        H275   1.081   1_565  S
C269        C270   1.375       .  D
C270        C343   1.485       .  S
C271        H276   1.086       .  S
C271        C272   1.365       .  D
C272        C551   1.484       .  S
C277        C278   1.538       .  S
C277        C283   1.526       .  S
C277        C281   1.530       .  S
C277        C372   1.516       .  S
C278        H285   1.082       .  S
C278        C279   1.367       .  D
C279        C404   1.480       .  S
C279        C280   1.544       .  S
C280        C284   1.540       .  S
C280        C282   1.542       .  S
C280        H286   1.109       .  S
C281        H287   1.086       .  S
C281        C282   1.369       .  D
C282        C308   1.479       .  S
C283        H288   1.087       .  S
C283        C284   1.363       .  D
C289        C290   1.525       .  S
C289        C295   1.523       .  S
C289        C293   1.540       .  S
C289        C327   1.513       .  S
C290        H297   1.087       .  S
C290        C291   1.364       .  D
C291        C292   1.541       .  S
C292        C296   1.545       .  S
C292        C294   1.540       .  S
C292        H298   1.110       .  S
C293        H299   1.081       .  S
C293        C294   1.372       .  D
C294        C311   1.481       .  S
C295        H300   1.086       .  S
C295        C296   1.364       .  D
C296        C423   1.473       .  S
C301        S307   1.699       .  A
C301        C306   1.386       .  A
C301        C302   1.396       .  A
C302        C303   1.397       .  A
C302        H313   1.083       .  S
C303        C312   1.364       .  A
C303        C304   1.386       .  A
C304        S310   1.710       .  A
C304        C305   1.404       .  A
C305        C306   1.405       .  A
C305        H314   1.083       .  S
C306        C309   1.372       .  A
S307        C308   1.723       .  A
C308        C309   1.389       .  A
C309        H315   1.082       .  S
S310        C311   1.727       .  A
C311        C312   1.385       .  A
C312        H316   1.082       .  S
C317        S323   1.703       .  A
C317        C322   1.386       .  A
C317        C318   1.400       .  A
C318        C319   1.401       .  A
C318        H329   1.083       .  S
C319        C328   1.369       .  A
C319        C320   1.385       .  A
C320        S326   1.702       .  A
C320        C321   1.401       .  A
C321        C322   1.402       .  A
C321        H330   1.083       .  S
C322        C325   1.370       .  A
S323        C324   1.728       .  A
C324        C325   1.389       .  A
C325        H331   1.083       .  S
S326        C327   1.728       .  A
C327        C328   1.390       .  A
C328        H332   1.080       .  S
C333        S339   1.699   1_565  A
C333        C338   1.386       .  A
C333        C334   1.398       .  A
C334        C335   1.399       .  A
C334        H345   1.083   1_565  S
C335        C344   1.368       .  A
C335        C336   1.385       .  A
C336        S342   1.707       .  A
C336        C337   1.404       .  A
C337        C338   1.405       .  A
C337        H346   1.083       .  S
C338        C341   1.374       .  A
S339        C340   1.725   1_545  A
C340        C341   1.389       .  A
C341        H347   1.082       .  S
S342        C343   1.727       .  A
C343        C344   1.388       .  A
C344        H348   1.082   1_565  S
C349        S355   1.702       .  A
C349        C354   1.386       .  A
C349        C350   1.400       .  A
C350        C351   1.401       .  A
C350        H361   1.083       .  S
C351        C360   1.370       .  A
C351        C352   1.386       .  A
C352        S358   1.698       .  A
C352        C353   1.399       .  A
C353        C354   1.399       .  A
C353        H362   1.083       .  S
C354        C357   1.366       .  A
S355        C356   1.727       .  A
C356        C357   1.386       .  A
C357        H363   1.083       .  S
S358        C359   1.727       .  A
C359        C360   1.389       .  A
C360        H364   1.080       .  S
C365        S371   1.708       .  A
C365        C370   1.385       .  A
C365        C366   1.406       .  A
C366        C367   1.406       .  A
C366        H377   1.083       .  S
C367        C376   1.374       .  A
C367        C368   1.386       .  A
C368        S374   1.697       .  A
C368        C369   1.396       .  A
C369        C370   1.397       .  A
C369        H378   1.083       .  S
C370        C373   1.365       .  A
S371        C372   1.731       .  A
C372        C373   1.388       .  A
C373        H379   1.080       .  S
S374        C375   1.725       .  A
C375        C376   1.392       .  A
C376        H380   1.083       .  S
C381        S387   1.694       .  A
C381        C386   1.387       .  A
C381        C382   1.395       .  A
C382        C383   1.395       .  A
C382        H393   1.083       .  S
C383        C392   1.365       .  A
C383        C384   1.386       .  A
C384        S390   1.707       .  A
C384        C385   1.405       .  A
C385        C386   1.405       .  A
C385        H394   1.083       .  S
C386        C389   1.376       .  A
S387        C388   1.724       .  A
C388        C389   1.388       .  A
C389        H395   1.083       .  S
S390        C391   1.726       .  A
C391        C392   1.384       .  A
C392        H396   1.082       .  S
C397        S403   1.712       .  A
C397        C402   1.386       .  A
C397        C398   1.401       .  A
C398        C399   1.404       .  A
C398        H409   1.083       .  S
C399        C408   1.367       .  A
C399        C400   1.385       .  A
C400        S406   1.711   1_556  A
C400        C401   1.402       .  A
C401        C402   1.404       .  A
C401        H410   1.083       .  S
C402        C405   1.367       .  A
S403        C404   1.721       .  A
C404        C405   1.389       .  A
C405        H411   1.083       .  S
S406        C407   1.724       .  A
C407        C408   1.391   1_554  A
C408        H412   1.082       .  S
C413        S419   1.710   1_556  A
C413        C418   1.386       .  A
C413        C414   1.399       .  A
C414        C415   1.403       .  A
C414        H425   1.083       .  S
C415        C424   1.362       .  A
C415        C416   1.386       .  A
C416        S422   1.708       .  A
C416        C417   1.396       .  A
C417        C418   1.400       .  A
C417        H426   1.083       .  S
C418        C421   1.360   1_556  A
S419        C420   1.722       .  A
C420        C421   1.387       .  A
C421        H427   1.082   1_554  S
S422        C423   1.718       .  A
C423        C424   1.389       .  A
C424        H428   1.083       .  S
C429        S435   1.708       .  A
C429        C434   1.386       .  A
C429        C430   1.403       .  A
C430        C431   1.404       .  A
C430        H441   1.083       .  S
C431        C440   1.370       .  A
C431        C432   1.386       .  A
C432        S438   1.701       .  A
C432        C433   1.397       .  A
C433        C434   1.398       .  A
C433        H442   1.083       .  S
C434        C437   1.366       .  A
S435        C436   1.726       .  A
C436        C437   1.385       .  A
C437        H443   1.082       .  S
S438        C439   1.723       .  A
C439        C440   1.389       .  A
C440        H444   1.082       .  S
C445        S451   1.713       .  A
C445        C450   1.385       .  A
C445        C446   1.400   1_655  A
C446        C447   1.404       .  A
C446        H457   1.083       .  S
C447        C456   1.366       .  A
C447        C448   1.385   1_455  A
C448        S454   1.717   1_556  A
C448        C449   1.404       .  A
C449        C450   1.408       .  A
C449        H458   1.083       .  S
C450        C453   1.370       .  A
S451        C452   1.722       .  A
C452        C453   1.393       .  A
C453        H459   1.082       .  S
S454        C455   1.725   1_655  A
C455        C456   1.389   1_554  A
C456        H460   1.082       .  S
C461        S467   1.699       .  A
C461        C466   1.386       .  A
C461        C462   1.396       .  A
C462        C463   1.398       .  A
C462        H473   1.083       .  S
C463        C472   1.366       .  A
C463        C464   1.385       .  A
C464        S470   1.704       .  A
C464        C465   1.402       .  A
C465        C466   1.403       .  A
C465        H474   1.083       .  S
C466        C469   1.369       .  A
S467        C468   1.725       .  A
C468        C469   1.389       .  A
C469        H475   1.083       .  S
S470        C471   1.730       .  A
C471        C472   1.388       .  A
C472        H476   1.079       .  S
C477        S483   1.712   1_556  A
C477        C482   1.385   1_655  A
C477        C478   1.401       .  A
C478        C479   1.404       .  A
C478        H489   1.083       .  S
C479        C488   1.366       .  A
C479        C480   1.385       .  A
C480        S486   1.713       .  A
C480        C481   1.401   1_655  A
C481        C482   1.405       .  A
C481        H490   1.083       .  S
C482        C485   1.367   1_556  A
S483        C484   1.724   1_655  A
C484        C485   1.393       .  A
C485        H491   1.082       .  S
S486        C487   1.722       .  A
C487        C488   1.391       .  A
C488        H492   1.083       .  S
C493        S499   1.696       .  A
C493        C498   1.387       .  A
C493        C494   1.396       .  A
C494        C495   1.396       .  A
C494        H505   1.083       .  S
C495        C504   1.364       .  A
C495        C496   1.386       .  A
C496        S502   1.707       .  A
C496        C497   1.403       .  A
C497        C498   1.404       .  A
C497        H506   1.083   1_455  S
C498        C501   1.372       .  A
S499        C500   1.724       .  A
C500        C501   1.386       .  A
C501        H507   1.083       .  S
S502        C503   1.725       .  A
C503        C504   1.385       .  A
C504        H508   1.082       .  S
C509        S515   1.718       .  A
C509        C514   1.385       .  A
C509        C510   1.405       .  A
C510        C511   1.408       .  A
C510        H521   1.083       .  S
C511        C520   1.372   1_556  A
C511        C512   1.385       .  A
C512        S518   1.714   1_556  A
C512        C513   1.403       .  A
C513        C514   1.406       .  A
C513        H522   1.083       .  S
C514        C517   1.369       .  A
S515        C516   1.724       .  A
C516        C517   1.392       .  A
C517        H523   1.083       .  S
S518        C519   1.725       .  A
C519        C520   1.395       .  A
C520        H524   1.082       .  S
C525        S531   1.697       .  A
C525        C530   1.386       .  A
C525        C526   1.396       .  A
C526        C527   1.397       .  A
C526        H537   1.083       .  S
C527        C536   1.365       .  A
C527        C528   1.386       .  A
C528        S534   1.706       .  A
C528        C529   1.403       .  A
C529        C530   1.403       .  A
C529        H538   1.083       .  S
C530        C533   1.370       .  A
S531        C532   1.725       .  A
C532        C533   1.391       .  A
C533        H539   1.080       .  S
S534        C535   1.730       .  A
C535        C536   1.385       .  A
C536        H540   1.083       .  S
C541        S547   1.712   1_556  A
C541        C546   1.386       .  A
C541        C542   1.403       .  A
C542        C543   1.405       .  A
C542        H553   1.083       .  S
C543        C552   1.368       .  A
C543        C544   1.385       .  A
C544        S550   1.712       .  A
C544        C545   1.401       .  A
C545        C546   1.403       .  A
C545        H554   1.083       .  S
C546        C549   1.368       .  A
S547        C548   1.724       .  A
C548        C549   1.389   1_554  A
C549        H555   1.082       .  S
S550        C551   1.721       .  A
C551        C552   1.392       .  A
C552        H556   1.082       .  S
C557        S563   1.711       .  A
C557        C562   1.385       .  A
C557        C558   1.405       .  A
C558        C559   1.406       .  A
C558        H569   1.083       .  S
C559        C568   1.374       .  A
C559        C560   1.385       .  A
C560        S566   1.701       .  A
C560        C561   1.399       .  A
C561        C562   1.400       .  A
C561        H570   1.083       .  S
C562        C565   1.367       .  A
S563        C564   1.729       .  A
C564        C565   1.387       .  A
C565        H571   1.083       .  S
S566        C567   1.726       .  A
C567        C568   1.393       .  A
C568        H572   1.081       .  S
C573        S579   1.708       .  A
C573        C578   1.386       .  A
C573        C574   1.405       .  A
C574        C575   1.405       .  A
C574        H585   1.083       .  S
C575        C584   1.375       .  A
C575        C576   1.387       .  A
C576        S582   1.696       .  A
C576        C577   1.397       .  A
C577        C578   1.397       .  A
C577        H586   1.083       .  S
C578        C581   1.366       .  A
S579        C580   1.726       .  A
C580        C581   1.385       .  A
C581        H587   1.082       .  S
S582        C583   1.725       .  A
C583        C584   1.388       .  A
C584        H588   1.083       .  S
C589        S595   1.694       .  A
C589        C594   1.388       .  A
C589        C590   1.391       .  A
C590        C591   1.393       .  A
C590        H601   1.083       .  S
C591        C600   1.358       .  A
C591        C592   1.387       .  A
C592        S598   1.714       .  A
C592        C593   1.405       .  A
C593        C594   1.406       .  A
C593        H602   1.083       .  S
C594        C597   1.373       .  A
S595        C596   1.717   1_545  A
C596        C597   1.386   1_565  A
C597        H603   1.083       .  S
S598        C599   1.724       .  A
C599        C600   1.379       .  A
C600        H604   1.084       .  S
C605        S611   1.701       .  A
C605        C610   1.388       .  A
C605        C606   1.398       .  A
C606        C607   1.399       .  A
C606        H617   1.083       .  S
C607        C616   1.367       .  A
C607        C608   1.387       .  A
C608        S614   1.711       .  A
C608        C609   1.405       .  A
C609        C610   1.405       .  A
C609        H618   1.083       .  S
C610        C613   1.375       .  A
S611        C612   1.721       .  A
C612        C613   1.387       .  A
C613        H619   1.083       .  S
S614        C615   1.724       .  A
C615        C616   1.383       .  A
C616        H620   1.083       .  S
C621        S627   1.698       .  A
C621        C626   1.388       .  A
C621        C622   1.393       .  A
C622        C623   1.395       .  A
C622        H633   1.083       .  S
C623        C632   1.360       .  A
C623        C624   1.388       .  A
C624        S630   1.708       .  A
C624        C625   1.401       .  A
C625        C626   1.403       .  A
C625        H634   1.083       .  S
C626        C629   1.368       .  A
S627        C628   1.717       .  A
C628        C629   1.384       .  A
C629        H635   1.083       .  S
S630        C631   1.723       .  A
C631        C632   1.379       .  A
C632        H636   1.084       .  S
C637        S643   1.710       .  A
C637        C642   1.387       .  A
C637        C638   1.403       .  A
C638        C639   1.403       .  A
C638        H649   1.083       .  S
C639        C648   1.372       .  A
C639        C640   1.388       .  A
C640        S646   1.701       .  A
C640        C641   1.398       .  A
C641        C642   1.399       .  A
C641        H650   1.083       .  S
C642        C645   1.366       .  A
S643        C644   1.721       .  A
C644        C645   1.384       .  A
C645        H651   1.083       .  S
S646        C647   1.720       .  A
C647        C648   1.385       .  A
C648        H652   1.083       .  S
C653        S659   1.703       .  A
C653        C658   1.388       .  A
C653        C654   1.397       .  A
C654        C655   1.398       .  A
C654        H665   1.083       .  S
C655        C664   1.363       .  A
C655        C656   1.387       .  A
C656        S662   1.708       .  A
C656        C657   1.400       .  A
C657        C658   1.402       .  A
C657        H666   1.083       .  S
C658        C661   1.368       .  A
S659        C660   1.720       .  A
C660        C661   1.385       .  A
C661        H667   1.083       .  S
S662        C663   1.720       .  A
C663        C664   1.382       .  A
C664        H668   1.083       .  S
C669        S675   1.702   1_545  A
C669        C674   1.387       .  A
C669        C670   1.398       .  A
C670        C671   1.399       .  A
C670        H681   1.083       .  S
C671        C680   1.368       .  A
C671        C672   1.386       .  A
C672        S678   1.716       .  A
C672        C673   1.408       .  A
C673        C674   1.408       .  A
C673        H682   1.083       .  S
C674        C677   1.378       .  A
S675        C676   1.722       .  A
C676        C677   1.390   1_565  A
C677        H683   1.083       .  S
S678        C679   1.726       .  A
C679        C680   1.384       .  A
C680        H684   1.083       .  S
C685        S691   1.720       .  A
C685        C690   1.386       .  A
C685        C686   1.410       .  A
C686        C687   1.411       .  A
C686        H697   1.083       .  S
C687        C696   1.381       .  A
C687        C688   1.387       .  A
C688        S694   1.698       .  A
C688        C689   1.395       .  A
C689        C690   1.396       .  A
C689        H698   1.083       .  S
C690        C693   1.363       .  A
S691        C692   1.727       .  A
C692        C693   1.383       .  A
C693        H699   1.084       .  S
S694        C695   1.720       .  A
C695        C696   1.392       .  A
C696        H700   1.083       .  S
C701        S707   1.719       .  A
C701        C706   1.386       .  A
C701        C702   1.411       .  A
C702        C703   1.411       .  A
C702        H713   1.083       .  S
C703        C712   1.382       .  A
C703        C704   1.387       .  A
C704        S710   1.698       .  A
C704        C705   1.397       .  A
C705        C706   1.397       .  A
C705        H714   1.083       .  S
C706        C709   1.366       .  A
S707        C708   1.727       .  A
C708        C709   1.384       .  A
C709        H715   1.083       .  S
S710        C711   1.721       .  A
C711        C712   1.392       .  A
C712        H716   1.083       .  S
C717        S723   1.695       .  A
C717        C722   1.388       .  A
C717        C718   1.393       .  A
C718        C719   1.394       .  A
C718        H729   1.083       .  S
C719        C728   1.362       .  A
C719        C720   1.386       .  A
C720        S726   1.716       .  A
C720        C721   1.408       .  A
C721        C722   1.409       .  A
C721        H730   1.083       .  S
C722        C725   1.378       .  A
S723        C724   1.718       .  A
C724        C725   1.390       .  A
C725        H731   1.083       .  S
S726        C727   1.726       .  A
C727        C728   1.382       .  A
C728        H732   1.084       .  S
C733        S739   1.719       .  A
C733        C738   1.386       .  A
C733        C734   1.410       .  A
C734        C735   1.410       .  A
C734        H745   1.083       .  S
C735        C744   1.381       .  A
C735        C736   1.387   1_655  A
C736        S742   1.700       .  A
C736        C737   1.398       .  A
C737        C738   1.399   1_455  A
C737        H746   1.083       .  S
C738        C741   1.367       .  A
S739        C740   1.727       .  A
C740        C741   1.385       .  A
C741        H747   1.083   1_655  S
S742        C743   1.721       .  A
C743        C744   1.391   1_455  A
C744        H748   1.083       .  S
C749        S755   1.705       .  A
C749        C754   1.388       .  A
C749        C750   1.400       .  A
C750        C751   1.400       .  A
C750        H761   1.083       .  S
C751        C760   1.367       .  A
C751        C752   1.388       .  A
C752        S758   1.705       .  A
C752        C753   1.399       .  A
C753        C754   1.400       .  A
C753        H762   1.083       .  S
C754        C757   1.368       .  A
S755        C756   1.722       .  A
C756        C757   1.383       .  A
C757        H763   1.083       .  S
S758        C759   1.720       .  A
C759        C760   1.384       .  A
C760        H764   1.083       .  S
C765        S771   1.699       .  A
C765        C770   1.387       .  A
C765        C766   1.397       .  A
C766        C767   1.398       .  A
C766        H777   1.083       .  S
C767        C776   1.368       .  A
C767        C768   1.385       .  A
C768        S774   1.723       .  A
C768        C769   1.414       .  A
C769        C770   1.414       .  A
C769        H778   1.083       .  S
C770        C773   1.385       .  A
S771        C772   1.721       .  A
C772        C773   1.394       .  A
C773        H779   1.083       .  S
S774        C775   1.730       .  A
C775        C776   1.386       .  A
C776        H780   1.083       .  S
C781        S787   1.703       .  A
C781        C786   1.387       .  A
C781        C782   1.397       .  A
C782        C783   1.399       .  A
C782        H793   1.083       .  S
C783        C792   1.366       .  A
C783        C784   1.386       .  A
C784        S790   1.715       .  A
C784        C785   1.407       .  A
C785        C786   1.408       .  A
C785        H794   1.083       .  S
C786        C789   1.376       .  A
S787        C788   1.719       .  A
C788        C789   1.389       .  A
C789        H795   1.083       .  S
S790        C791   1.725       .  A
C791        C792   1.384       .  A
C792        H796   1.083       .  S
C797        S803   1.722       .  A
C797        C802   1.385       .  A
C797        C798   1.412       .  A
C798        C799   1.413       .  A
C798        H809   1.083       .  S
C799        C808   1.383       .  A
C799        C800   1.387       .  A
C800        S806   1.697       .  A
C800        C801   1.394       .  A
C801        C802   1.395       .  A
C801        H810   1.083       .  S
C802        C805   1.363       .  A
S803        C804   1.729       .  A
C804        C805   1.382       .  A
C805        H811   1.084       .  S
S806        C807   1.718       .  A
C807        C808   1.394       .  A
C808        H812   1.083       .  S
C813        S819   1.708   1_545  A
C813        C818   1.387       .  A
C813        C814   1.402       .  A
C814        C815   1.403       .  A
C814        H825   1.083       .  S
C815        C824   1.372       .  A
C815        C816   1.388       .  A
C816        S822   1.703       .  A
C816        C817   1.399       .  A
C817        C818   1.400       .  A
C817        H826   1.083       .  S
C818        C821   1.368       .  A
S819        C820   1.722       .  A
C820        C821   1.385   1_565  A
C821        H827   1.083       .  S
S822        C823   1.721       .  A
C823        C824   1.385       .  A
C824        H828   1.083       .  S
C829        S835   1.698       .  A
C829        C834   1.387   1_455  A
C829        C830   1.395       .  A
C830        C831   1.396   1_455  A
C830        H841   1.083       .  S
C831        C840   1.364       .  A
C831        C832   1.386       .  A
C832        S838   1.720       .  A
C832        C833   1.411       .  A
C833        C834   1.411       .  A
C833        H842   1.083       .  S
C834        C837   1.380       .  A
S835        C836   1.719       .  A
C836        C837   1.391   1_455  A
C837        H843   1.083       .  S
S838        C839   1.728       .  A
C839        C840   1.383       .  A
C840        H844   1.083   1_655  S
C845        S851   1.704       .  A
C845        C850   1.388       .  A
C845        C846   1.401       .  A
C846        C847   1.401       .  A
C846        H857   1.083       .  S
C847        C856   1.370       .  A
C847        C848   1.388       .  A
C848        S854   1.701       .  A
C848        C849   1.398       .  A
C849        C850   1.398       .  A
C849        H858   1.083       .  S
C850        C853   1.367   1_545  A
S851        C852   1.722   1_545  A
C852        C853   1.382       .  A
C853        H859   1.083       .  S
S854        C855   1.719       .  A
C855        C856   1.385       .  A
C856        H860   1.083       .  S
C861        S867   1.708       .  A
C861        C866   1.387       .  A
C861        C862   1.402       .  A
C862        C863   1.402       .  A
C862        H873   1.083       .  S
C863        C872   1.371       .  A
C863        C864   1.387       .  A
C864        S870   1.705       .  A
C864        C865   1.401       .  A
C865        C866   1.402       .  A
C865        H874   1.083       .  S
C866        C869   1.370       .  A
S867        C868   1.722       .  A
C868        C869   1.386       .  A
C869        H875   1.083       .  S
S870        C871   1.724       .  A
C871        C872   1.384       .  A
C872        H876   1.083       .  S
