geometry optimzed in LAMMPS
_audit_creation_date              2020-11-30 
_audit_creation_method            'lammps2cif' 
_symmetry_space_group_name_H-M    'P1' 
_symmetry_Int_Tables_number       1 
_symmetry_cell_setting            triclinic 
loop_ 
_symmetry_equiv_pos_as_xyz 
  x,y,z 
_cell_length_a                    29.96392023 
_cell_length_b                    30.07976054986663 
_cell_length_c                    29.13632883630452 
_cell_angle_alpha                 90.05533267291578 
_cell_angle_beta                  91.12388682177387 
_cell_angle_gamma                 89.79095324910476 
loop_ 
_atom_site_label 
_atom_site_type_symbol 
_atom_site_fract_x 
_atom_site_fract_y 
_atom_site_fract_z 
_atom_site_charge 
O1          O  0.46087149  0.40817347  0.46490503    -0.79800
O2          O  0.54369239  0.59292953  0.46858001    -0.79800
O3          O  0.44612371  0.54767764  0.41067773    -0.79800
O4          O  0.60906233  0.46941244  0.45759176    -0.79700
O5          O  0.45349895  0.60121539  0.46181384    -0.79800
O6          O  0.54654877  0.43035551  0.44836623    -0.79800
O7          O  0.55424788  0.53540901  0.42262043    -0.79800
O8          O  0.45203675  0.45874822  0.41265476    -0.79800
C9          C  0.44850883  0.41893816  0.42461793     1.09900
C10         C  0.55875944  0.57652142  0.43149895     1.09800
C11         C  0.44346430  0.58812101  0.42126023     1.10000
C12         C  0.58860850  0.43625865  0.44063962     1.09800
O13         O  0.52516807  0.39388948  0.53051599    -0.79800
O14         O  0.44598189  0.55714055  0.55105993    -0.79800
O15         O  0.40491376  0.45824066  0.50099931    -0.79800
O16         O  0.59057539  0.53873116  0.51461736    -0.79700
O17         O  0.53536339  0.55281137  0.55962654    -0.79800
O18         O  0.46015124  0.45400144  0.55214115    -0.79800
O19         O  0.56557002  0.45559930  0.53564481    -0.79700
O20         O  0.39676767  0.54774610  0.49501329    -0.79800
Co21       Co  0.50336040  0.44642868  0.50237689     1.51500
Co22       Co  0.49437782  0.57217959  0.50987655     1.51700
Co23       Co  0.42892317  0.50320323  0.45539410     1.51600
Co24       Co  0.55498332  0.49481525  0.47643344     1.51500
O25         O  0.49051729  0.50947338  0.48494562    -1.41700
C26         C  0.55764366  0.41509543  0.54812177     1.09900
C27         C  0.40619288  0.55701112  0.53660385     1.10000
C28         C  0.41925430  0.44916580  0.54153985     1.09900
C29         C  0.57651177  0.55405787  0.55217887     1.09900
O30         O  0.97168050  0.39537899  0.97962570    -0.79800
O31         O  0.05294862  0.55653237  0.95061285    -0.79800
O32         O  0.90847014  0.54268407  0.98656435    -0.79800
O33         O  0.09445520  0.45956060  0.00145343    -0.79700
O34         O  0.96482725  0.55251285  0.94291637    -0.79800
O35         O  0.03639417  0.45314692  0.95390457    -0.79800
O36         O  0.10340277  0.54859192  0.00562013    -0.79800
O37         O  0.93528930  0.45821020  0.96559601    -0.79800
C38         C  0.94196399  0.41641014  0.95705650     1.09900
C39         C  0.09308879  0.55588001  0.96388480     1.09800
C40         C  0.92381555  0.55671782  0.94916312     1.10000
C41         C  0.07769276  0.44818737  0.96241485     1.09800
O42         O  0.03904294  0.41096682  0.04135133    -0.79800
O43         O  0.95609536  0.59624482  0.03376080    -0.79800
O44         O  0.88926117  0.47327053  0.04327284    -0.79800
O45         O  0.05818353  0.55329373  0.09208146    -0.79700
O46         O  0.04722635  0.60354550  0.03776523    -0.79800
O47         O  0.95188489  0.43587794  0.05907284    -0.79800
O48         O  0.05183199  0.46164795  0.09289755    -0.79700
O49         O  0.94316912  0.53862593  0.07870784    -0.79800
Co50       Co  0.99485263  0.44859363  0.00490013     1.51500
Co51       Co  0.00534416  0.57347649  0.99205023     1.51700
Co52       Co  0.94376059  0.49809777  0.02504304     1.51600
Co53       Co  0.07243131  0.50582873  0.04756292     1.51500
O54         O  0.00930369  0.51202126  0.01958490    -1.41700
C55         C  0.05419970  0.42155170  0.08072078     1.09900
C56         C  0.93976812  0.57994703  0.07038536     1.10000
C57         C  0.90932283  0.44163042  0.06372608     1.09900
C58         C  0.05953475  0.59324603  0.07854053     1.09900
C59         C  0.75328210  0.25651523  0.74864122    -0.02100
O60         O  0.48578629  0.09841165  0.93913789    -0.79800
O61         O  0.48387907  0.91685966  0.02803431    -0.79800
O62         O  0.43956274  0.95539854  0.91933068    -0.79800
O63         O  0.47187783  0.04043363  0.09232058    -0.79700
O64         O  0.49083327  0.90487245  0.93646467    -0.79800
O65         O  0.45763797  0.07465940  0.02652188    -0.79800
O66         O  0.44140223  0.97702344  0.03349986    -0.79800
O67         O  0.43773084  0.04705195  0.92129233    -0.79800
C68         C  0.44865842  0.08753316  0.92136882     1.09900
C69         C  0.44733841  0.93577972  0.03936157     1.09800
C70         C  0.45187508  0.91522016  0.92199855     1.10000
C71         C  0.44960835  0.06894050  0.06974165     1.09800
O72         O  0.53689945  0.11591443  0.01481023    -0.79800
O73         O  0.57603200  0.94968746  0.93768432    -0.79800
O74         O  0.53035292  0.04691216  0.88766385    -0.79800
O75         O  0.52515731  0.96979536  0.07966551    -0.79700
O76         O  0.57519810  0.95721554  0.02926768    -0.79800
O77         O  0.56992171  0.05737428  0.95188465    -0.79800
O78         O  0.55156983  0.05264155  0.05085063    -0.79700
O79         O  0.52816558  0.95666812  0.88006352    -0.79800
Co80       Co  0.51584562  0.06205514  0.98877030     1.51500
Co81       Co  0.53097563  0.93607992  0.98268217     1.51700
Co82       Co  0.48416854  0.00165130  0.90637709     1.51600
Co83       Co  0.49422403  0.01472017  0.03832032     1.51500
O84         O  0.50566416  0.99785933  0.97309128    -1.41700
C85         C  0.55867888  0.09462572  0.04531053     1.09900
C86         C  0.56616793  0.94425187  0.89596594     1.10000
C87         C  0.56600421  0.05964666  0.90858870     1.09900
C88         C  0.56333341  0.95501243  0.07019772     1.09900
C89         C  0.25527433  0.72409439  0.75719840    -0.02100
O90         O  0.95967831  0.06366563  0.56034899    -0.79800
O91         O  0.05681338  0.89788672  0.53492528    -0.79800
O92         O  0.95469818  0.96134810  0.57794067    -0.79800
O93         O  0.05890481  0.03902038  0.59099119    -0.79700
O94         O  0.96650438  0.90457866  0.53122978    -0.79800
O95         O  0.04454483  0.09159998  0.54211562    -0.79800
O96         O  0.06546522  0.94944149  0.58806496    -0.79800
O97         O  0.89753579  0.02611930  0.54475927    -0.79800
C98         C  0.91727403  0.05767616  0.56545269     1.09900
C99         C  0.06715786  0.90930377  0.57593343     1.09800
C100        C  0.95160900  0.92024519  0.56869397     1.10000
C101        C  0.06048359  0.07958106  0.58079417     1.09800
O102        O  0.04309752  0.05090643  0.45268879    -0.79800
O103        O  0.97104890  0.94624826  0.44036895    -0.79800
O104        O  0.94119491  0.04264650  0.46717578    -0.79800
O105        O  0.11156058  0.95399708  0.50155151    -0.79700
O106        O  0.06078443  0.94492391  0.44692826    -0.79800
O107        O  0.97615251  0.10639298  0.48030258    -0.79800
O108        O  0.10085174  0.04406227  0.50061271    -0.79700
O109        O  0.91679088  0.95794644  0.48694346    -0.79800
Co110      Co  0.00164413  0.05340843  0.50440750     1.51500
Co111      Co  0.01403023  0.92751534  0.48906780     1.51700
Co112      Co  0.95228261  0.00240293  0.52502061     1.51600
Co113      Co  0.07996440  0.99633678  0.54459404     1.51500
O114        O  0.01737750  0.98960064  0.51653008    -1.41700
C115        C  0.08428270  0.05596192  0.46179125     1.09900
C116        C  0.93016820  0.94323165  0.44884505     1.10000
C117        C  0.94615522  0.08460511  0.45904072     1.09900
C118        C  0.10098399  0.94514043  0.46005523     1.09900
C119        C  0.74719858  0.76144929  0.25214510    -0.02100
C120        C  0.25040656  0.23313532  0.25501674    -0.02100
C121        C  0.75414095  0.24182761  0.25345337    -0.02100
C122        C  0.26095809  0.77979824  0.24266142    -0.02100
C123        C  0.25026009  0.27788958  0.75201201    -0.02100
C124        C  0.75620765  0.74123011  0.74286158    -0.02100
C125        C  0.11556285  0.17064454  0.63879525     0.20700
C126        C  0.12804222  0.21502797  0.64738685    -0.39200
C127        C  0.16343212  0.22127416  0.67926943     0.19700
C128        C  0.18518790  0.18613590  0.70050499     0.22300
C129        C  0.17243024  0.14179921  0.69236432    -0.39700
C130        C  0.13662610  0.13553307  0.66103867     0.21100
N131        N  0.08450583  0.15564935  0.60835452    -0.32900
C132        C  0.08541740  0.11060667  0.61158066    -0.10500
C133        C  0.11732022  0.09699288  0.64440232    -0.29300
N134        N  0.21862675  0.20077553  0.72816875    -0.45900
C135        C  0.21809127  0.24604442  0.72557718    -0.05200
C136        C  0.18380357  0.25961553  0.69495770    -0.22500
H137        H  0.11176140  0.24267366  0.63010951     0.19300
H138        H  0.18945291  0.11413453  0.70885748     0.18100
H139        H  0.12675952  0.06323507  0.65316321     0.14300
H140        H  0.17511593  0.29336508  0.68539301     0.14200
H141        H  0.06476623  0.17478356  0.58593221     0.32400
H142        H  0.24050045  0.18054264  0.74711553     0.35100
C143        C  0.17861146  0.15635643  0.31586115     0.20700
C144        C  0.14432037  0.12494378  0.32023193    -0.39200
C145        C  0.13644237  0.11005188  0.36504820     0.19700
C146        C  0.16140205  0.12472847  0.40252006     0.22300
C147        C  0.19506817  0.15679196  0.39823407    -0.39700
C148        C  0.20238587  0.17219695  0.35349354     0.21100
N149        N  0.19255205  0.17570587  0.27709120    -0.32900
C150        C  0.22526267  0.20469892  0.28975188    -0.10500
C151        C  0.23171493  0.20361929  0.33764642    -0.29300
N152        N  0.14725212  0.10572363  0.44138084    -0.45900
C153        C  0.11242908  0.07942809  0.42874703    -0.05200
C154        C  0.10459495  0.08134449  0.38140411    -0.22500
H155        H  0.12489679  0.11328828  0.29094558     0.19300
H156        H  0.21392334  0.16911899  0.42762033     0.18100
H157        H  0.25451426  0.22302761  0.35864137     0.14300
H158        H  0.07858790  0.06463773  0.36178605     0.14200
H159        H  0.18047169  0.16966265  0.24380432     0.32400
H160        H  0.15928970  0.11170264  0.47470385     0.35100
C161        C  0.83707168  0.81805139  0.69636170     0.20700
C162        C  0.86736216  0.85367269  0.69771294    -0.39200
C163        C  0.88772339  0.86380062  0.65599361     0.19700
C164        C  0.87899905  0.83966408  0.61637630     0.22300
C165        C  0.84795753  0.80484780  0.61483703    -0.39700
C166        C  0.82715515  0.79523013  0.65630988     0.21100
N167        N  0.81367294  0.80160001  0.73127686    -0.32900
C168        C  0.78798089  0.76831656  0.71350900    -0.10500
C169        C  0.79531299  0.76392978  0.66635620    -0.29300
N170        N  0.90241008  0.85563405  0.58130237    -0.45900
C171        C  0.92557523  0.89083319  0.59821104    -0.05200
C172        C  0.91722441  0.89716865  0.64475204    -0.22500
H173        H  0.87432809  0.87226018  0.72884616     0.19300
H174        H  0.84041261  0.78671031  0.58355089     0.18100
H175        H  0.77981938  0.74116034  0.64223553     0.14300
H176        H  0.93023054  0.92309672  0.66699184     0.14200
H177        H  0.81492332  0.81247379  0.76534618     0.32400
H178        H  0.90119302  0.84447411  0.54733869     0.35100
C179        C  0.18378464  0.88826372  0.39713693     0.20700
C180        C  0.21505065  0.85421469  0.39025317    -0.39200
C181        C  0.22051304  0.84086049  0.34454147     0.19700
C182        C  0.19703624  0.85999447  0.30834874     0.22300
C183        C  0.16543864  0.89373375  0.31517886    -0.39700
C184        C  0.15967277  0.90690680  0.36091180     0.21100
N185        N  0.16896527  0.90340399  0.43757855    -0.32900
C186        C  0.13445534  0.93098390  0.42695525    -0.10500
C187        C  0.12810258  0.93442646  0.37952425    -0.29300
N188        N  0.20778530  0.84065241  0.26841228    -0.45900
C189        C  0.23883038  0.80904539  0.27888921    -0.05200
C190        C  0.24662061  0.80780511  0.32657635    -0.22500
H191        H  0.23280249  0.83831694  0.41852221     0.19300
H192        H  0.14569421  0.90763226  0.28715241     0.18100
H193        H  0.10132427  0.95157578  0.36131562     0.14300
H194        H  0.26786917  0.78551072  0.34625748     0.14200
H195        H  0.17870932  0.89229224  0.47023653     0.32400
H196        H  0.19485035  0.84848737  0.23584913     0.35100
C197        C  0.87926397  0.87299499  0.36294413     0.20700
C198        C  0.87857347  0.84110219  0.32755480    -0.39200
C199        C  0.83635086  0.82438413  0.31480936     0.19700
C200        C  0.79765903  0.83903098  0.33498797     0.22300
C201        C  0.79838764  0.87041810  0.37098761    -0.39700
C202        C  0.84076587  0.88659472  0.38439703     0.21100
N203        N  0.91528125  0.89295619  0.38193099    -0.32900
C204        C  0.90004604  0.91906914  0.41636212    -0.10500
C205        C  0.85357946  0.91591259  0.41898828    -0.29300
N206        N  0.76176376  0.81905583  0.31559302    -0.45900
C207        C  0.77744471  0.79003672  0.28373986    -0.05200
C208        C  0.82416997  0.79302298  0.28225552    -0.22500
H209        H  0.90879366  0.82985464  0.31135036     0.19300
H210        H  0.76820227  0.88121748  0.38754976     0.18100
H211        H  0.83222112  0.93204072  0.44352521     0.14300
H212        H  0.84644380  0.77535425  0.25978125     0.14200
H213        H  0.94852136  0.88785473  0.37304538     0.32400
H214        H  0.72838846  0.82501054  0.32339356     0.35100
C215        C  0.81221140  0.16457078  0.32968544     0.20700
C216        C  0.81676562  0.12845438  0.35987602    -0.39200
C217        C  0.85866253  0.12401831  0.38179037     0.19700
C218        C  0.89289850  0.15401601  0.37516238     0.22300
C219        C  0.88846097  0.18976322  0.34460333    -0.39700
C220        C  0.84703480  0.19337581  0.32174837     0.21100
N221        N  0.77536637  0.17721614  0.30605374    -0.32900
C222        C  0.78718316  0.21331130  0.28113607    -0.10500
C223        C  0.83169393  0.22463729  0.29098269    -0.29300
N224        N  0.92862419  0.14379414  0.40170368    -0.45900
C225        C  0.91731225  0.10650846  0.42465963    -0.05200
C226        C  0.87406516  0.09302276  0.41307441    -0.22500
H227        H  0.78965572  0.10568280  0.36605721     0.19300
H228        H  0.91517438  0.21320662  0.33923561     0.18100
H229        H  0.84990488  0.25331640  0.27922555     0.14300
H230        H  0.85596779  0.06507389  0.42674557     0.14200
H231        H  0.74372066  0.16298489  0.30800877     0.32400
H232        H  0.95877972  0.16103464  0.40406779     0.35100
C233        C  0.16383236  0.77293523  0.68855789     0.20700
C234        C  0.13249561  0.77444861  0.65189178    -0.39200
C235        C  0.11526223  0.81679845  0.64099595     0.19700
C236        C  0.12757227  0.85422710  0.66576779     0.22300
C237        C  0.15939192  0.85273963  0.70159960    -0.39700
C238        C  0.17747196  0.81081325  0.71140417     0.21100
N239        N  0.18785673  0.73769138  0.70313028    -0.32900
C240        C  0.21851918  0.75320747  0.73443250    -0.10500
C241        C  0.21255193  0.79918310  0.74005304    -0.29300
N242        N  0.10929935  0.89083501  0.64714826    -0.45900
C243        C  0.08612877  0.87727549  0.60929723    -0.05200
C244        C  0.08865031  0.83109627  0.60440148    -0.22500
H245        H  0.12381225  0.74521111  0.63201192     0.19300
H246        H  0.17089610  0.88248574  0.71902813     0.18100
H247        H  0.23222637  0.82227007  0.76025331     0.14300
H248        H  0.07514979  0.81113064  0.57654268     0.14200
H249        H  0.18547688  0.70569610  0.68950749     0.32400
H250        H  0.11495487  0.92355284  0.65778197     0.35100
C251        C  0.64380675  0.12826959  0.12454465     0.20700
C252        C  0.67720922  0.12303713  0.15855906    -0.39200
C253        C  0.69204811  0.16241253  0.17953576     0.19700
C254        C  0.67460318  0.20352030  0.16769928     0.22300
C255        C  0.64185392  0.20887904  0.13323882    -0.39700
C256        C  0.62731243  0.16968902  0.11204411     0.21100
N257        N  0.62231548  0.09605682  0.10123578    -0.32900
C258        C  0.59225668  0.11734175  0.07365812    -0.10500
C259        C  0.59465056  0.16324933  0.07902618    -0.29300
N260        N  0.69355705  0.23559476  0.19307951    -0.45900
C261        C  0.72377178  0.21524101  0.22139712    -0.05200
C262        C  0.72402996  0.16929178  0.21341599    -0.22500
H263        H  0.69021750  0.09072605  0.16835963     0.19300
H264        H  0.62830256  0.24113987  0.12403084     0.18100
H265        H  0.57379541  0.18831384  0.06265631     0.14300
H266        H  0.74524826  0.14415623  0.22898681     0.14200
H267        H  0.62694337  0.06177132  0.10472429     0.32400
H268        H  0.68681521  0.26963827  0.19085163     0.35100
C269        C  0.36683944  0.10950076  0.14560191     0.20700
C270        C  0.33939244  0.10847286  0.18413658    -0.39200
C271        C  0.31747308  0.14842480  0.19449523     0.19700
C272        C  0.32359109  0.18668040  0.16918872     0.22300
C273        C  0.35068173  0.18761617  0.13035781    -0.39700
C274        C  0.37165586  0.14734537  0.11919464     0.21100
N275        N  0.39274652  0.07653942  0.12998487    -0.32900
C276        C  0.41385227  0.09317364  0.09303972    -0.10500
C277        C  0.40123432  0.13717745  0.08482556    -0.29300
N278        N  0.30080138  0.22070756  0.18729683    -0.45900
C279        C  0.27848083  0.20402058  0.22358327    -0.05200
C280        C  0.28860405  0.15880586  0.22932296    -0.22500
H281        H  0.33567272  0.07883136  0.20472648     0.19300
H282        H  0.35537175  0.21760233  0.11055340     0.18100
H283        H  0.41398962  0.15940711  0.05904601     0.14300
H284        H  0.27747797  0.13673626  0.25604709     0.14200
H285        H  0.39680675  0.04493866  0.14435650     0.32400
H286        H  0.30056005  0.25358761  0.17577291     0.35100
C287        C  0.33167088  0.82123815  0.15288128     0.20700
C288        C  0.36179359  0.81729289  0.11683153    -0.39200
C289        C  0.37839438  0.85736293  0.09979892     0.19700
C290        C  0.36553289  0.89820707  0.11714179     0.22300
C291        C  0.33607457  0.90209318  0.15385576    -0.39700
C292        C  0.31972762  0.86192449  0.17109667     0.21100
N293        N  0.31174221  0.78810409  0.17521741    -0.32900
C294        C  0.28704514  0.80738309  0.20844334    -0.10500
C295        C  0.29153127  0.85373501  0.20698532    -0.29300
N296        N  0.38673544  0.93120727  0.09574164    -0.45900
C297        C  0.41389506  0.91123666  0.06518074    -0.05200
C298        C  0.40968667  0.86515332  0.06666969    -0.22500
H299        H  0.37196049  0.78533124  0.10342801     0.19300
H300        H  0.32694187  0.93398676  0.16820536     0.18100
H301        H  0.27696696  0.87829258  0.22936329     0.14300
H302        H  0.42806718  0.84071772  0.04727432     0.14200
H303        H  0.31526191  0.75410722  0.16879394     0.32400
H304        H  0.38457610  0.96514461  0.10310431     0.35100
C305        C  0.64960788  0.86994907  0.85606626     0.20700
C306        C  0.68333210  0.83793237  0.86156731    -0.39200
C307        C  0.69722260  0.81727384  0.82129088     0.19700
C308        C  0.67953860  0.82823661  0.77862947     0.22300
C309        C  0.64521972  0.86005033  0.77311329    -0.39700
C310        C  0.63062272  0.88030561  0.81371853     0.21100
N311        N  0.62996589  0.89289425  0.88944515    -0.32900
C312        C  0.59759272  0.91780810  0.86882396    -0.10500
C313        C  0.59673777  0.91085796  0.82136808    -0.29300
N314        N  0.69860507  0.80350830  0.74589934    -0.45900
C315        C  0.72754928  0.77539430  0.76793826    -0.05200
C316        C  0.72795565  0.78382969  0.81518737    -0.22500
H317        H  0.69720027  0.82920010  0.89495611     0.19300
H318        H  0.63052261  0.86785917  0.73985275     0.18100
H319        H  0.57395559  0.92530098  0.79620730     0.14300
H320        H  0.74804635  0.76798244  0.84176480     0.14200
H321        H  0.63713357  0.89040685  0.92459603     0.32400
H322        H  0.69178694  0.80501597  0.71063491     0.35100
C323        C  0.36070654  0.15738690  0.87660290     0.20700
C324        C  0.31665442  0.17284019  0.87039607    -0.39200
C325        C  0.30977815  0.20464788  0.83562263     0.19700
C326        C  0.34402192  0.21968264  0.80868174     0.22300
C327        C  0.38835600  0.20488915  0.81546858    -0.39700
C328        C  0.39537452  0.17341715  0.85070281     0.21100
N329        N  0.37529160  0.12527006  0.90548730    -0.32900
C330        C  0.41975144  0.12126039  0.89866190    -0.10500
C331        C  0.43361750  0.15100050  0.86499223    -0.29300
N332        N  0.32817237  0.24763004  0.77599638    -0.45900
C333        C  0.28326521  0.25074050  0.78208529    -0.05200
C334        C  0.27098536  0.22460604  0.81956446    -0.22500
H335        H  0.28946782  0.16019912  0.89045579     0.19300
H336        H  0.41524230  0.21632131  0.79424519     0.18100
H337        H  0.46679425  0.15425716  0.85136103     0.14300
H338        H  0.23766483  0.21979047  0.83230263     0.14200
H339        H  0.35612247  0.10680427  0.92811610     0.32400
H340        H  0.34694851  0.26246782  0.75043076     0.35100
C341        C  0.64941040  0.89918106  0.13518649     0.20700
C342        C  0.69320156  0.88546690  0.14672365    -0.39200
C343        C  0.69700357  0.84994287  0.17800352     0.19700
C344        C  0.66008708  0.82929257  0.19581214     0.22300
C345        C  0.61636003  0.84338936  0.18479996    -0.39700
C346        C  0.61250760  0.87936286  0.15420340     0.21100
N347        N  0.63667182  0.93031102  0.10432248    -0.32900
C348        C  0.59135011  0.93091387  0.10431086    -0.10500
C349        C  0.57510478  0.89976846  0.13521760    -0.29300
N350        N  0.67246418  0.79553770  0.22363214    -0.45900
C351        C  0.71793786  0.79410239  0.22379055    -0.05200
C352        C  0.73416570  0.82847247  0.19618710    -0.22500
H353        H  0.72215894  0.90090728  0.13196429     0.19300
H354        H  0.58739269  0.82716496  0.19864077     0.18100
H355        H  0.54057706  0.89111488  0.14065804     0.14300
H356        H  0.76873096  0.83656860  0.19019899     0.14200
H357        H  0.65743745  0.94901313  0.08345573     0.32400
H358        H  0.65070905  0.77530527  0.24167274     0.35100
C359        C  0.39872640  0.82730686  0.86015666     0.20700
C360        C  0.39501774  0.79503024  0.82534595    -0.39200
C361        C  0.35135264  0.78185348  0.81351680     0.19700
C362        C  0.31459224  0.79837934  0.83585520     0.22300
C363        C  0.31817516  0.83099516  0.87012657    -0.39700
C364        C  0.36156959  0.84531384  0.88083739     0.21100
N365        N  0.43599737  0.84804347  0.87491130    -0.32900
C366        C  0.42224019  0.88033823  0.90395779    -0.10500
C367        C  0.37608508  0.87961110  0.90868394    -0.29300
N368        N  0.27695592  0.78031586  0.81884090    -0.45900
C369        C  0.28907839  0.75292273  0.78407326    -0.05200
C370        C  0.33570049  0.75312035  0.77993112    -0.22500
H371        H  0.42386033  0.78219640  0.80780741     0.19300
H372        H  0.28914674  0.84525491  0.88615555     0.18100
H373        H  0.35578843  0.90238815  0.92817610     0.14300
H374        H  0.35575053  0.73456915  0.75605118     0.14200
H375        H  0.46840967  0.84271459  0.86347959     0.32400
H376        H  0.24473188  0.78591316  0.83067922     0.35100
C377        C  0.87718777  0.14248683  0.63930495     0.20700
C378        C  0.87975717  0.17755787  0.67097349    -0.39200
C379        C  0.83900594  0.19794133  0.68127627     0.19700
C380        C  0.79918335  0.18525081  0.66069617     0.22300
C381        C  0.79657867  0.15039101  0.62886144    -0.39700
C382        C  0.83701645  0.12912341  0.61956468     0.21100
N383        N  0.91097118  0.11751113  0.62390858    -0.32900
C384        C  0.89194998  0.08787443  0.59454171    -0.10500
C385        C  0.84588126  0.09381689  0.59117975    -0.29300
N386        N  0.76496131  0.20758048  0.67864955    -0.45900
C387        C  0.78230000  0.23287973  0.71326503    -0.05200
C388        C  0.82909043  0.22924679  0.71396115    -0.22500
H389        H  0.91091583  0.18728955  0.68743663     0.19300
H390        H  0.76517315  0.13965163  0.61365629     0.18100
H391        H  0.82237718  0.07598047  0.56937794     0.14300
H392        H  0.85314675  0.24498740  0.73667658     0.14200
H393        H  0.94488651  0.12097627  0.63208779     0.32400
H394        H  0.73174556  0.20490459  0.66790337     0.35100
C395        C  0.68363920  0.16594474  0.78968949     0.20700
C396        C  0.65010809  0.13370353  0.78562578    -0.39200
C397        C  0.63654341  0.11461243  0.82683153     0.19700
C398        C  0.65528123  0.12651349  0.86884947     0.22300
C399        C  0.68862627  0.15910735  0.87285329    -0.39700
C400        C  0.70185320  0.17851000  0.83152805     0.21100
N401        N  0.69978459  0.19091521  0.75591443    -0.32900
C402        C  0.72856911  0.22047963  0.77575914    -0.10500
C403        C  0.73040937  0.21339150  0.82343898    -0.29300
N404        N  0.63422291  0.10605373  0.90312501    -0.45900
C405        C  0.60141015  0.08156575  0.88282669    -0.05200
C406        C  0.60203511  0.08576785  0.83520149    -0.22500
H407        H  0.63458224  0.12531189  0.75290882     0.19300
H408        H  0.70201999  0.16975274  0.90581976     0.18100
H409        H  0.74858608  0.23207833  0.84935907     0.14300
H410        H  0.57870215  0.07182354  0.81032521     0.14200
H411        H  0.68883227  0.18927389  0.72187976     0.32400
H412        H  0.63997315  0.11070783  0.93828477     0.35100
C413        C  0.16541731  0.30971900  0.20967089     0.20700
C414        C  0.13683518  0.34695430  0.21047566    -0.39200
C415        C  0.11627788  0.35863131  0.16829376     0.19700
C416        C  0.12326863  0.33469390  0.12848703     0.22300
C417        C  0.15248680  0.29799484  0.12755093    -0.39700
C418        C  0.17337297  0.28668727  0.16960877     0.21100
N419        N  0.18983279  0.29265275  0.24481109    -0.32900
C420        C  0.21521067  0.25953026  0.22692829    -0.10500
C421        C  0.20469844  0.25433137  0.18002576    -0.29300
N422        N  0.10030238  0.35277405  0.09287424    -0.45900
C423        C  0.07888440  0.38892058  0.10981203    -0.05200
C424        C  0.08829615  0.39375281  0.15675819    -0.22500
H425        H  0.13150709  0.36585287  0.24152826     0.19300
H426        H  0.15901334  0.27996206  0.09621066     0.18100
H427        H  0.21835237  0.23049102  0.15624619     0.14300
H428        H  0.07706525  0.42006035  0.17916180     0.14200
H429        H  0.19038756  0.30388886  0.27875060     0.32400
H430        H  0.10069607  0.34228394  0.05869221     0.35100
C431        C  0.12281555  0.68346712  0.12582152     0.20700
C432        C  0.15230025  0.71952620  0.12324870    -0.39200
C433        C  0.17625530  0.72974972  0.16374283     0.19700
C434        C  0.17048893  0.70673715  0.20418975     0.22300
C435        C  0.14123470  0.67029304  0.20671173    -0.39700
C436        C  0.11801506  0.65925692  0.16577877     0.21100
N437        N  0.09972903  0.66468747  0.09088982    -0.32900
C438        C  0.08082376  0.62750654  0.10809849    -0.10500
C439        C  0.09123912  0.62314890  0.15491029    -0.29300
N440        N  0.19841178  0.72218965  0.23730614    -0.45900
C441        C  0.22367512  0.75408737  0.21744321    -0.05200
C442        C  0.20985977  0.76010938  0.17156485    -0.22500
H443        H  0.15761514  0.73715579  0.09146165     0.19300
H444        H  0.13819300  0.65083737  0.23771171     0.18100
H445        H  0.08273235  0.59584128  0.17722035     0.14300
H446        H  0.22295724  0.78316502  0.14677576     0.14200
H447        H  0.09960758  0.67475939  0.05658050     0.32400
H448        H  0.20118096  0.71072536  0.27107651     0.35100
C449        C  0.86698828  0.66095764  0.12112971     0.20700
C450        C  0.83792627  0.69783118  0.12149984    -0.39200
C451        C  0.81566890  0.70571473  0.16281248     0.19700
C452        C  0.82242137  0.67945824  0.20114483     0.22300
C453        C  0.85070903  0.64185532  0.20050284    -0.39700
C454        C  0.87249799  0.63347863  0.15886426     0.21100
N455        N  0.89163305  0.64638044  0.08592316    -0.32900
C456        C  0.91259307  0.60877057  0.10070674    -0.10500
C457        C  0.90123946  0.59953815  0.14612014    -0.29300
N458        N  0.79901583  0.69541900  0.23668810    -0.45900
C459        C  0.77628662  0.73189539  0.22104864    -0.05200
C460        C  0.78577354  0.73872626  0.17452922    -0.22500
H461        H  0.83306086  0.71895406  0.09175612     0.19300
H462        H  0.85546642  0.62072317  0.23025155     0.18100
H463        H  0.91206190  0.57147751  0.16677694     0.14300
H464        H  0.77358256  0.76462664  0.15190200     0.14200
H465        H  0.89289336  0.66034429  0.05316063     0.32400
H466        H  0.79879532  0.68247688  0.26993616     0.35100
C467        C  0.19199445  0.63933279  0.81603089     0.20700
C468        C  0.15779131  0.60833770  0.82119402    -0.39200
C469        C  0.15315693  0.59141540  0.86554864     0.19700
C470        C  0.18103271  0.60365993  0.90189964     0.22300
C471        C  0.21557725  0.63434063  0.89647195    -0.39700
C472        C  0.21950909  0.65194642  0.85226448     0.21100
N473        N  0.20089110  0.66282694  0.77826433    -0.32900
C474        C  0.23375359  0.69172180  0.79047997    -0.10500
C475        C  0.24659304  0.68500080  0.83658439    -0.29300
N476        N  0.16559100  0.58811299  0.94173795    -0.45900
C477        C  0.12702213  0.56709600  0.93058813    -0.05200
C478        C  0.11875140  0.56753613  0.88338828    -0.22500
H479        H  0.13470276  0.60017702  0.79343433     0.19300
H480        H  0.23604367  0.64574157  0.92512821     0.18100
H481        H  0.27233940  0.70175898  0.85645946     0.14300
H482        H  0.08898837  0.55628753  0.86524968     0.14200
H483        H  0.18524324  0.65889401  0.74632460     0.32400
H484        H  0.17772374  0.59562005  0.97468857     0.35100
C485        C  0.83723561  0.67690687  0.81064701     0.20700
C486        C  0.87949812  0.66069955  0.82393828    -0.39200
C487        C  0.88010038  0.62894143  0.85920044     0.19700
C488        C  0.84169157  0.61465104  0.88021752     0.22300
C489        C  0.79928957  0.63060885  0.86653531    -0.39700
C490        C  0.79865105  0.66212187  0.83083682     0.21100
N491        N  0.82784637  0.70711932  0.77783770    -0.32900
C492        C  0.78267476  0.71183879  0.77670880    -0.10500
C493        C  0.76346858  0.68381722  0.80923948    -0.29300
N494        N  0.85169083  0.58583956  0.91443980    -0.45900
C495        C  0.89679826  0.58162917  0.91480460    -0.05200
C496        C  0.91548682  0.60778656  0.88062573    -0.22500
H497        H  0.90976231  0.67217247  0.80815245     0.19300
H498        H  0.76905938  0.61952807  0.88264350     0.18100
H499        H  0.72830587  0.67986139  0.81592735     0.14300
H500        H  0.95056037  0.61216706  0.87367008     0.14200
H501        H  0.85107631  0.72271034  0.75705911     0.32400
H502        H  0.82942020  0.57079438  0.93670904     0.35100
C503        C  0.16782138  0.33799539  0.82034731     0.20700
C504        C  0.12500994  0.34902786  0.83548729    -0.39200
C505        C  0.12321597  0.38012675  0.87128529     0.19700
C506        C  0.16118054  0.39836319  0.89133226     0.22300
C507        C  0.20418029  0.38738426  0.87592940    -0.39700
C508        C  0.20587948  0.35667426  0.83936900     0.21100
N509        N  0.17808001  0.30841749  0.78762777    -0.32900
C510        C  0.22339017  0.30833942  0.78429517    -0.10500
C511        C  0.24167633  0.33803637  0.81689741    -0.29300
N512        N  0.15024403  0.42564506  0.92624607    -0.45900
C513        C  0.10495781  0.42503567  0.92786726    -0.05200
C514        C  0.08707889  0.39714865  0.89395558    -0.22500
H515        H  0.09519646  0.33419380  0.82063397     0.19300
H516        H  0.23406822  0.40139989  0.89146485     0.18100
H517        H  0.27650301  0.34382836  0.82494505     0.14300
H518        H  0.05225518  0.38926500  0.88771614     0.14200
H519        H  0.15475969  0.28879616  0.77012165     0.32400
H520        H  0.17212596  0.44327442  0.94779264     0.35100
C521        C  0.86295640  0.35127035  0.12474561     0.20700
C522        C  0.85875555  0.30715008  0.13937936    -0.39200
C523        C  0.82438723  0.29931454  0.17017459     0.19700
C524        C  0.79657136  0.33282564  0.18531661     0.22300
C525        C  0.79978320  0.37663455  0.16948853    -0.39700
C526        C  0.83403806  0.38449932  0.13858854     0.21100
N527        N  0.89410255  0.36777006  0.09714491    -0.32900
C528        C  0.88442953  0.41158529  0.09293027    -0.10500
C529        C  0.84699821  0.42329482  0.11783992    -0.29300
N530        N  0.76849526  0.31740295  0.21673309    -0.45900
C531        C  0.77865445  0.27362274  0.22208660    -0.05200
C532        C  0.81246975  0.26098022  0.19229414    -0.22500
H533        H  0.88121035  0.28110758  0.12845859     0.19300
H534        H  0.77792377  0.40284446  0.18120745     0.18100
H535        H  0.83182822  0.45585394  0.12084972     0.14300
H536        H  0.82715366  0.22828710  0.18848013     0.14200
H537        H  0.91991153  0.35027644  0.08156274     0.32400
H538        H  0.74366301  0.33577134  0.23286999     0.35100
C539        C  0.86531153  0.37893476  0.86940315     0.20700
C540        C  0.82924831  0.38143661  0.83777539    -0.39200
C541        C  0.81506985  0.34071400  0.81874558     0.19700
C542        C  0.83520884  0.30084271  0.83053960     0.22300
C543        C  0.87130439  0.29833387  0.86174463    -0.39700
C544        C  0.88554310  0.33883922  0.88057344     0.21100
N545        N  0.88375810  0.41230054  0.89407231    -0.32900
C546        C  0.91584731  0.39309499  0.92106079    -0.10500
C547        C  0.91811418  0.34741217  0.91326134    -0.29300
N548        N  0.81543375  0.26689166  0.80845775    -0.45900
C549        C  0.78260577  0.28471064  0.78131780    -0.05200
C550        C  0.78117421  0.33104692  0.78746860    -0.22500
H551        H  0.81311081  0.41263765  0.82906552     0.19300
H552        H  0.88682633  0.26699978  0.87112588     0.18100
H553        H  0.93947726  0.32340729  0.93062915     0.14300
H554        H  0.75867363  0.35473805  0.77127670     0.14200
H555        H  0.87423466  0.44574586  0.89362260     0.32400
H556        H  0.82408488  0.23331762  0.81145822     0.35100
C557        C  0.62600396  0.62537048  0.63664063     0.20700
C558        C  0.62617571  0.65990509  0.66899289    -0.39200
C559        C  0.66835169  0.67497318  0.68338391     0.19700
C560        C  0.70746356  0.65667640  0.66746085     0.22300
C561        C  0.70732060  0.62220582  0.63472110    -0.39700
C562        C  0.66497771  0.60751664  0.61961612     0.21100
N563        N  0.59015014  0.60687432  0.61617574    -0.29300
C564        C  0.60603951  0.57746793  0.58517402    -0.10500
C565        C  0.65268640  0.57680018  0.58627625    -0.29300
N566        N  0.74304855  0.67723970  0.68657354    -0.45900
C567        C  0.72670111  0.70991150  0.71391741    -0.05200
C568        C  0.67989105  0.70864056  0.71320120    -0.22500
H569        H  0.59564095  0.67456616  0.68139930     0.19300
H570        H  0.73787532  0.60849177  0.62133754     0.18100
H571        H  0.67453096  0.55755656  0.56470869     0.14300
H572        H  0.65691851  0.72907912  0.73218939     0.14200
H573        H  0.55677411  0.61526343  0.62152120     0.32400
H574        H  0.77668865  0.66961554  0.68118245     0.35100
C575        C  0.34046747  0.38367618  0.60234331     0.20700
C576        C  0.30880026  0.34980763  0.60739879    -0.39200
C577        C  0.29981550  0.33728041  0.65270487     0.19700
C578        C  0.32032859  0.35708308  0.69019244     0.22300
C579        C  0.35268663  0.39051084  0.68519273    -0.39700
C580        C  0.36212355  0.40280617  0.63977763     0.21100
N581        N  0.35628849  0.39985777  0.56283971    -0.32900
C582        C  0.38905057  0.42880094  0.57496544    -0.10500
C583        C  0.39361582  0.43164256  0.62272064    -0.29300
N584        N  0.30595563  0.33886353  0.72946070    -0.45900
C585        C  0.27570755  0.30695899  0.71735186    -0.05200
C586        C  0.27202684  0.30490007  0.66917036    -0.22500
H587        H  0.29280566  0.33386212  0.57813449     0.19300
H588        H  0.36981474  0.40528864  0.71444664     0.18100
H589        H  0.41779447  0.45095316  0.64221900     0.14300
H590        H  0.25245338  0.28238855  0.64812995     0.14200
H591        H  0.34716168  0.38990441  0.52960829     0.32400
H592        H  0.31733049  0.34708005  0.76238919     0.35100
C593        C  0.66754499  0.36885703  0.38295011     0.20700
C594        C  0.71002539  0.35463829  0.37010631    -0.39200
C595        C  0.71088078  0.31838044  0.34006139     0.19700
C596        C  0.67245597  0.29775548  0.32397268     0.22300
C597        C  0.62986060  0.31151661  0.33749257    -0.39700
C598        C  0.62895350  0.34793402  0.36758178     0.21100
N599        N  0.65785911  0.40349853  0.40997462    -0.32900
C600        C  0.61279653  0.40452327  0.41215943    -0.10500
C601        C  0.59346217  0.37032210  0.38633298    -0.29300
N602        N  0.68225792  0.26648612  0.29276137    -0.45900
C603        C  0.72732617  0.26783123  0.28831809    -0.05200
C604        C  0.74622073  0.29901254  0.31843529    -0.22500
H605        H  0.74014332  0.37136750  0.38164627     0.19300
H606        H  0.59967256  0.29585118  0.32456429     0.18100
H607        H  0.55830756  0.36291776  0.38191901     0.14300
H608        H  0.78102107  0.30826206  0.32162952     0.14200
H609        H  0.68054117  0.42480922  0.42639502     0.32400
H610        H  0.65928272  0.24671786  0.27480470     0.35100
C611        C  0.39790329  0.67697382  0.35344185     0.20700
C612        C  0.38712805  0.72097149  0.34149261    -0.39200
C613        C  0.35284867  0.72603896  0.30829353     0.19700
C614        C  0.33063835  0.69021541  0.28891124     0.22300
C615        C  0.34232321  0.64630512  0.29973277    -0.39700
C616        C  0.37682394  0.64120120  0.33247597     0.21100
N617        N  0.42592180  0.66306797  0.38727534    -0.32900
C618        C  0.42286133  0.61812462  0.38713491    -0.10500
C619        C  0.39304420  0.60339480  0.35313023    -0.29300
N620        N  0.29610541  0.70381860  0.26228826    -0.45900
C621        C  0.29567991  0.74889366  0.26516831    -0.05200
C622        C  0.33199238  0.76375354  0.29204796    -0.22500
H623        H  0.40284027  0.74916430  0.35821953     0.19300
H624        H  0.32449967  0.61817711  0.28529473     0.18100
H625        H  0.38235763  0.56959344  0.34657479     0.14300
H626        H  0.34013615  0.79778299  0.30084928     0.14200
H627        H  0.44466440  0.68281836  0.40992649     0.32400
H628        H  0.27415210  0.68321202  0.24404457     0.35100
C629        C  0.62119466  0.63273319  0.34466746     0.20700
C630        C  0.63674219  0.64312175  0.30054518    -0.39200
C631        C  0.66825932  0.67782012  0.29844154     0.19700
C632        C  0.68366202  0.69960527  0.33735070     0.22300
C633        C  0.66772600  0.68973234  0.38113367    -0.39700
C634        C  0.63566946  0.65597819  0.38312597     0.21100
N635        N  0.59160758  0.60106389  0.35638825    -0.32900
C636        C  0.58668292  0.60511978  0.40247983    -0.10500
C637        C  0.61354170  0.63907661  0.42013907    -0.29300
N638        N  0.71397562  0.73060792  0.32677385    -0.45900
C639        C  0.71744488  0.73015634  0.28026113    -0.05200
C640        C  0.68945457  0.69702526  0.26159672    -0.22500
H641        H  0.62507889  0.62565241  0.27014404     0.19300
H642        H  0.67928414  0.70731413  0.41151652     0.18100
H643        H  0.61721720  0.64925580  0.45566042     0.14300
H644        H  0.68502549  0.68852304  0.22570245     0.14200
H645        H  0.57562136  0.57837400  0.33451030     0.32400
H646        H  0.73095705  0.75049657  0.35059232     0.35100
C647        C  0.69479888  0.33311111  0.67201960     0.20700
C648        C  0.69101562  0.36502994  0.63712366    -0.39200
C649        C  0.64756859  0.37345884  0.62056472     0.19700
C650        C  0.61075245  0.35105570  0.63670024     0.22300
C651        C  0.61445875  0.31983952  0.67233657    -0.39700
C652        C  0.65788556  0.31214804  0.68954843     0.21100
N653        N  0.73255461  0.31725286  0.69160429    -0.32900
C654        C  0.71990457  0.28597658  0.72225939    -0.10500
C655        C  0.67316543  0.28281519  0.72245224    -0.29300
N656        N  0.57358558  0.36304056  0.61313398    -0.45900
C657        C  0.58691899  0.39400971  0.58261809    -0.05200
C658        C  0.63266289  0.40155755  0.58633903    -0.22500
H659        H  0.71984454  0.38151906  0.62330835     0.19300
H660        H  0.58582423  0.30220615  0.68509079     0.18100
H661        H  0.65265924  0.26110052  0.74264830     0.14300
H662        H  0.65250796  0.42347735  0.56558016     0.14200
H663        H  0.76516332  0.32609760  0.68356332     0.32400
H664        H  0.54130200  0.35092846  0.61740741     0.35100
C665        C  0.34785008  0.59482524  0.63296460     0.20700
C666        C  0.34422736  0.60473282  0.67976229    -0.39200
C667        C  0.31721250  0.64130392  0.69008360     0.19700
C668        C  0.29607489  0.66643970  0.65641076     0.22300
C669        C  0.29919071  0.65619551  0.60962495    -0.39700
C670        C  0.32562333  0.61917547  0.59922370     0.21100
N671        N  0.37608025  0.56576451  0.61410963    -0.32900
C672        C  0.37194164  0.57173414  0.56815192    -0.10500
C673        C  0.33998513  0.60397742  0.55738875    -0.29300
N674        N  0.27365038  0.70039487  0.67501435    -0.45900
C675        C  0.27899450  0.69607084  0.72126015    -0.05200
C676        C  0.30684426  0.65983371  0.73167302    -0.22500
H677        H  0.36222749  0.58619568  0.70607185     0.19300
H678        H  0.28328289  0.67635864  0.58321474     0.18100
H679        H  0.33272075  0.61838629  0.52402847     0.14300
H680        H  0.31713521  0.64807932  0.76536396     0.14200
H681        H  0.39968277  0.54602612  0.63147187     0.32400
H682        H  0.25622494  0.72492258  0.65670746     0.35100
C683        C  0.37529241  0.36638060  0.34390050     0.20700
C684        C  0.33944734  0.36512750  0.31223461    -0.39200
C685        C  0.32231759  0.32284665  0.30243295     0.19700
C686        C  0.34008513  0.28470818  0.32193281     0.22300
C687        C  0.37574369  0.28595248  0.35401240    -0.39700
C688        C  0.39237373  0.32840279  0.36461339     0.21100
N689        N  0.39532651  0.40270898  0.36099928    -0.32900
C690        C  0.42469534  0.38811778  0.39366375    -0.10500
C691        C  0.42404490  0.34184728  0.39688504    -0.29300
N692        N  0.31751429  0.24880247  0.30715221    -0.45900
C693        C  0.28395130  0.26401931  0.27915269    -0.05200
C694        C  0.28670923  0.31033148  0.27482464    -0.22500
H695        H  0.32519654  0.39501532  0.29724802     0.19300
H696        H  0.38873252  0.25620660  0.37040747     0.18100
H697        H  0.44272057  0.32112131  0.42081705     0.14300
H698        H  0.26597971  0.33227235  0.25411536     0.14200
H699        H  0.38756225  0.43570054  0.35284102     0.32400
H700        H  0.32423199  0.21576951  0.31601188     0.35100
loop_ 
_geom_bond_atom_site_label_1 
_geom_bond_atom_site_label_2 
_geom_bond_distance 
_geom_bond_site_symmetry_2 
_ccdc_geom_bond_type 
O1            C9   1.266       .  A
O1          Co21   2.023       .  S
O2           C10   1.277       .  A
O2          Co22   2.025       .  S
O3           C11   1.257       .  A
O3          Co23   1.946       .  S
O4           C12   1.267       .  A
O4          Co24   1.880       .  S
O5           C11   1.276       .  A
O5          Co22   2.038       .  S
O6           C12   1.297       .  A
O6          Co21   2.112       .  S
O7           C10   1.270       .  A
O7          Co24   1.988       .  S
O8            C9   1.253       .  A
O8          Co23   1.960       .  S
C9          C690   1.470       .  S
C10         C636   1.480       .  S
C11         C618   1.469       .  S
C12         C600   1.464       .  S
O13          C26   1.265       .  A
O13         Co21   1.890       .  S
O14          C27   1.257       .  A
O14         Co22   1.955       .  S
O15          C28   1.278       .  A
O15         Co23   2.040       .  S
O16          C29   1.266       .  A
O16         Co24   2.020       .  S
O17          C29   1.257       .  A
O17         Co22   1.969       .  S
O18          C28   1.267       .  A
O18         Co21   1.975       .  S
O19          C26   1.296       .  A
O19         Co24   2.109       .  S
O20          C27   1.270       .  A
O20         Co23   2.022       .  S
Co21         O25   1.998       .  S
Co22         O25   2.023       .  S
Co23         O25   2.031       .  S
Co24         O25   2.000       .  S
C26         C657   1.464       .  S
C27         C672   1.459       .  S
C28         C582   1.477       .  S
C29         C564   1.474       .  S
O30          C38   1.265       .  A
O30         Co50   1.890   1_556  S
O31          C39   1.256       .  A
O31         Co51   1.953       .  S
O32          C40   1.265       .  A
O32         Co52   2.030   1_556  S
O33          C41   1.281   1_554  A
O33         Co53   2.050       .  S
O34          C40   1.252       .  A
O34         Co51   1.964   1_655  S
O35          C41   1.266       .  A
O35         Co50   1.962   1_456  S
O36          C39   1.268   1_554  A
O36         Co53   2.016       .  S
O37          C38   1.297       .  A
O37         Co52   2.118   1_556  S
C38         C546   1.475       .  S
C39         C477   1.460       .  S
C40         C495   1.478       .  S
C41         C513   1.481       .  S
O42          C55   1.266       .  A
O42         Co50   2.024   1_455  S
O43          C56   1.281       .  A
O43         Co51   2.046   1_654  S
O44          C57   1.267       .  A
O44         Co52   1.884       .  S
O45          C58   1.266       .  A
O45         Co53   1.979       .  S
O46          C58   1.275       .  A
O46         Co51   2.027   1_554  S
O47          C57   1.296       .  A
O47         Co50   2.093       .  S
O48          C55   1.259       .  A
O48         Co53   1.983       .  S
O49          C56   1.270       .  A
O49         Co52   1.982       .  S
Co50         O54   2.002   1_655  S
Co51         O54   2.018   1_556  S
Co52         O54   2.019   1_655  S
Co53         O54   2.053       .  S
C55         C423   1.483       .  S
C56         C456   1.489       .  S
C57         C528   1.459       .  S
C58         C438   1.481       .  S
C59         C387   1.534       .  S
C59         C402   1.542       .  S
C59         C549   1.539       .  S
C59         C654   1.530       .  S
O60          C68   1.262       .  A
O60         Co80   2.011       .  S
O61          C69   1.281       .  A
O61         Co81   2.038   1_554  S
O62          C70   1.264       .  A
O62         Co82   1.975   1_565  S
O63          C71   1.262       .  A
O63         Co83   1.886       .  S
O64          C70   1.271       .  A
O64         Co81   2.021       .  S
O65          C71   1.298       .  A
O65         Co80   2.113   1_554  S
O66          C69   1.264       .  A
O66         Co83   1.953   1_565  S
O67          C68   1.262       .  A
O67         Co82   2.000       .  S
C68         C330   1.480       .  S
C69         C297   1.467       .  S
C70         C366   1.467       .  S
C71         C276   1.470       .  S
O72          C85   1.265       .  A
O72         Co80   1.893   1_554  S
O73          C86   1.256       .  A
O73         Co81   1.945       .  S
O74          C87   1.279       .  A
O74         Co82   2.027       .  S
O75          C88   1.261       .  A
O75         Co83   2.022   1_565  S
O76          C88   1.253       .  A
O76         Co81   1.984   1_554  S
O77          C87   1.267       .  A
O77         Co80   1.966       .  S
O78          C85   1.292       .  A
O78         Co83   2.092       .  S
O79          C86   1.276       .  A
O79         Co82   2.045   1_565  S
Co80         O84   2.007   1_545  S
Co81         O84   2.022       .  S
Co82         O84   2.039   1_545  S
Co83         O84   2.002   1_544  S
C85         C258   1.460       .  S
C86         C312   1.472       .  S
C87         C405   1.470       .  S
C88         C348   1.477       .  S
C89         C240   1.544       .  S
C89         C369   1.538       .  S
C89         C474   1.528       .  S
C89         C675   1.528       .  S
O90          C98   1.295       .  A
O90        Co110   2.100   1_655  S
O91          C99   1.276       .  A
O91        Co111   2.037       .  S
O92         C100   1.268       .  A
O92        Co112   1.976   1_565  S
O93         C101   1.257       .  A
O93        Co113   1.974   1_545  S
O94         C100   1.276       .  A
O94        Co111   2.022   1_655  S
O95         C101   1.268       .  A
O95        Co110   2.033       .  S
O96          C99   1.259       .  A
O96        Co113   1.953       .  S
O97          C98   1.266       .  A
O97        Co112   1.886       .  S
C98         C384   1.462       .  S
C99         C243   1.474       .  S
C100        C171   1.471       .  S
C101        C132   1.487       .  S
O102        C115   1.267       .  A
O102       Co110   1.973       .  S
O103        C116   1.258       .  A
O103       Co111   1.978   1_655  S
O104        C117   1.294       .  A
O104       Co112   2.096       .  S
O105        C118   1.272       .  A
O105       Co113   2.031       .  S
O106        C118   1.257       .  A
O106       Co111   1.954       .  S
O107        C117   1.266       .  A
O107       Co110   1.894   1_655  S
O108        C115   1.277       .  A
O108       Co113   2.034   1_545  S
O109        C116   1.266       .  A
O109       Co112   2.028   1_565  S
Co110       O114   2.005   1_545  S
Co111       O114   2.033       .  S
Co112       O114   2.007   1_645  S
Co113       O114   2.042       .  S
C115        C153   1.474       .  S
C116        C204   1.486       .  S
C117        C225   1.465       .  S
C118        C186   1.467       .  S
C119        C207   1.543       .  S
C119        C351   1.544       .  S
C119        C459   1.547       .  S
C119        C639   1.545       .  S
C120        C150   1.536       .  S
C120        C279   1.529       .  S
C120        C420   1.541       .  S
C120        C693   1.532       .  S
C121        C222   1.527       .  S
C121        C261   1.520       .  S
C121        C531   1.524       .  S
C121        C603   1.522       .  S
C122        C189   1.533       .  S
C122        C294   1.527       .  S
C122        C441   1.536       .  S
C122        C621   1.531       .  S
C123        C135   1.554       .  S
C123        C333   1.541       .  S
C123        C510   1.547       .  S
C123        C585   1.550       .  S
C124        C168   1.530       .  S
C124        C315   1.531       .  S
C124        C492   1.533       .  S
C124        C567   1.535       .  S
C125        C130   1.384       .  A
C125        C126   1.409       .  A
C125        N131   1.351       .  A
C126        C127   1.409       .  A
C126        H137   1.082       .  S
C127        C136   1.380       .  A
C127        C128   1.380       .  A
C128        C129   1.407       .  A
C128        N134   1.348       .  A
C129        C130   1.408       .  A
C129        H138   1.082       .  S
C130        C133   1.381       .  A
N131        C132   1.358       .  A
N131        H141   1.045       .  S
C132        C133   1.399       .  A
C133        H139   1.083       .  S
N134        C135   1.364       .  A
N134        H142   1.043       .  S
C135        C136   1.407       .  A
C136        H140   1.082       .  S
C143        C148   1.381       .  A
C143        C144   1.406       .  A
C143        N149   1.346       .  A
C144        C145   1.406       .  A
C144        H155   1.082       .  S
C145        C154   1.381       .  A
C145        C146   1.384       .  A
C146        C147   1.406       .  A
C146        N152   1.346       .  A
C147        C148   1.405       .  A
C147        H156   1.082       .  S
C148        C151   1.379       .  A
N149        C150   1.360       .  A
N149        H159   1.045       .  S
C150        C151   1.405       .  A
C151        H157   1.081       .  S
N152        C153   1.357       .  A
N152        H160   1.045       .  S
C153        C154   1.396       .  A
C154        H158   1.082       .  S
C161        C166   1.381       .  A
C161        C162   1.407       .  A
C161        N167   1.343       .  A
C162        C163   1.405       .  A
C162        H173   1.082       .  S
C163        C172   1.384       .  A
C163        C164   1.384       .  A
C164        C165   1.403       .  A
C164        N170   1.341       .  A
C165        C166   1.401       .  A
C165        H174   1.082       .  S
C166        C169   1.379       .  A
N167        C168   1.361       .  A
N167        H177   1.045       .  S
C168        C169   1.402       .  A
C169        H175   1.080       .  S
N170        C171   1.355       .  A
N170        H178   1.045       .  S
C171        C172   1.397       .  A
C172        H176   1.082       .  S
C179        C184   1.385       .  A
C179        C180   1.402       .  A
C179        N185   1.346       .  A
C180        C181   1.403       .  A
C180        H191   1.082       .  S
C181        C190   1.373       .  A
C181        C182   1.381       .  A
C182        C183   1.402       .  A
C182        N188   1.345       .  A
C183        C184   1.404       .  A
C183        H192   1.082       .  S
C184        C187   1.374       .  A
N185        C186   1.355       .  A
N185        H195   1.045       .  S
C186        C187   1.395       .  A
C187        H193   1.083       .  S
N188        C189   1.358       .  A
N188        H196   1.045       .  S
C189        C190   1.405       .  A
C190        H194   1.080       .  S
C197        C202   1.383       .  A
C197        C198   1.408       .  A
C197        N203   1.346       .  A
C198        C199   1.406       .  A
C198        H209   1.082       .  S
C199        C208   1.382       .  A
C199        C200   1.381       .  A
C200        C201   1.410       .  A
C200        N206   1.348       .  A
C201        C202   1.409       .  A
C201        H210   1.082       .  S
C202        C205   1.388       .  A
N203        C204   1.359       .  A
N203        H213   1.045       .  S
C204        C205   1.399       .  A
C205        H211   1.082       .  S
N206        C207   1.363       .  A
N206        H214   1.045       .  S
C207        C208   1.405       .  A
C208        H212   1.082       .  S
C215        C220   1.382       .  A
C215        C216   1.403       .  A
C215        N221   1.344       .  A
C216        C217   1.403       .  A
C216        H227   1.082       .  S
C217        C226   1.377       .  A
C217        C218   1.385       .  A
C218        C219   1.401       .  A
C218        N224   1.343       .  A
C219        C220   1.401       .  A
C219        H228   1.082       .  S
C220        C223   1.372       .  A
N221        C222   1.359       .  A
N221        H231   1.044       .  S
C222        C223   1.402       .  A
C223        H229   1.082       .  S
N224        C225   1.354       .  A
N224        H232   1.045       .  S
C225        C226   1.394       .  A
C226        H230   1.083       .  S
C233        C238   1.378       .  A
C233        C234   1.409       .  A
C233        N239   1.344       .  A
C234        C235   1.407       .  A
C234        H245   1.082       .  S
C235        C244   1.387       .  A
C235        C236   1.384       .  A
C236        C237   1.401       .  A
C236        N242   1.339       .  A
C237        C238   1.398       .  A
C237        H246   1.082       .  S
C238        C241   1.374       .  A
N239        C240   1.365       .  A
N239        H249   1.043       .  S
C240        C241   1.404       .  A
C241        H247   1.079       .  S
N242        C243   1.355       .  A
N242        H250   1.045       .  S
C243        C244   1.398       .  A
C244        H248   1.082       .  S
C251        C256   1.385       .  A
C251        C252   1.403       .  A
C251        N257   1.342       .  A
C252        C253   1.402       .  A
C252        H263   1.082       .  S
C253        C262   1.378       .  A
C253        C254   1.382       .  A
C254        C255   1.399       .  A
C254        N260   1.337       .  A
C255        C256   1.397       .  A
C255        H264   1.083       .  S
C256        C259   1.373       .  A
N257        C258   1.355       .  A
N257        H267   1.045       .  S
C258        C259   1.392       .  A
C259        H265   1.083       .  S
N260        C261   1.358       .  A
N260        H268   1.045       .  S
C261        C262   1.401       .  A
C262        H266   1.081       .  S
C269        C274   1.384       .  A
C269        C270   1.405       .  A
C269        N275   1.342       .  A
C270        C271   1.403       .  A
C270        H281   1.082       .  S
C271        C280   1.381       .  A
C271        C272   1.382       .  A
C272        C273   1.406       .  A
C272        N278   1.342       .  A
C273        C274   1.403       .  A
C273        H282   1.082       .  S
C274        C277   1.384       .  A
N275        C276   1.356       .  A
N275        H285   1.045       .  S
C276        C277   1.395       .  A
C277        H283   1.082       .  S
N278        C279   1.360       .  A
N278        H286   1.045       .  S
C279        C280   1.402       .  A
C280        H284   1.082       .  S
C287        C292   1.382       .  A
C287        C288   1.403       .  A
C287        N293   1.340       .  A
C288        C289   1.401       .  A
C288        H299   1.082       .  S
C289        C298   1.380       .  A
C289        C290   1.384       .  A
C290        C291   1.405       .  A
C290        N296   1.341       .  A
C291        C292   1.403       .  A
C291        H300   1.083       .  S
C292        C295   1.380       .  A
N293        C294   1.358       .  A
N293        H303   1.045       .  S
C294        C295   1.402       .  A
C295        H301   1.081       .  S
N296        C297   1.356       .  A
N296        H304   1.045       .  S
C297        C298   1.393       .  A
C298        H302   1.082       .  S
C305        C310   1.384       .  A
C305        C306   1.400       .  A
C305        N311   1.337       .  A
C306        C307   1.397       .  A
C306        H317   1.083       .  S
C307        C316   1.375       .  A
C307        C308   1.381       .  A
C308        C309   1.409       .  A
C308        N314   1.344       .  A
C309        C310   1.407       .  A
C309        H318   1.082       .  S
C310        C313   1.388       .  A
N311        C312   1.355       .  A
N311        H321   1.045       .  S
C312        C313   1.398       .  A
C313        H319   1.082       .  S
N314        C315   1.361       .  A
N314        H322   1.045       .  S
C315        C316   1.399       .  A
C316        H320   1.081       .  S
C323        C328   1.384       .  A
C323        C324   1.406       .  A
C323        N329   1.348       .  A
C324        C325   1.406       .  A
C324        H335   1.082       .  S
C325        C334   1.380       .  A
C325        C326   1.382       .  A
C326        C327   1.410       .  A
C326        N332   1.349       .  A
C327        C328   1.409       .  A
C327        H336   1.082       .  S
C328        C331   1.385       .  A
N329        C330   1.356       .  A
N329        H339   1.045       .  S
C330        C331   1.398       .  A
C331        H337   1.083       .  S
N332        C333   1.364       .  A
N332        H340   1.044       .  S
C333        C334   1.402       .  A
C334        H338   1.082       .  S
C341        C346   1.384       .  A
C341        C342   1.409       .  A
C341        N347   1.348       .  A
C342        C343   1.408       .  A
C342        H353   1.082       .  S
C343        C352   1.382       .  A
C343        C344   1.381       .  A
C344        C345   1.407       .  A
C344        N350   1.346       .  A
C345        C346   1.406       .  A
C345        H354   1.082       .  S
C346        C349   1.382       .  A
N347        C348   1.358       .  A
N347        H357   1.045       .  S
C348        C349   1.396       .  A
C349        H355   1.082       .  S
N350        C351   1.363       .  A
N350        H358   1.043       .  S
C351        C352   1.405       .  A
C352        H356   1.082       .  S
C359        C364   1.385       .  A
C359        C360   1.406       .  A
C359        N365   1.344       .  A
C360        C361   1.405       .  A
C360        H371   1.082       .  S
C361        C370   1.381       .  A
C361        C362   1.381       .  A
C362        C363   1.402       .  A
C362        N368   1.340       .  A
C363        C364   1.401       .  A
C363        H372   1.082       .  S
C364        C367   1.378       .  A
N365        C366   1.356       .  A
N365        H375   1.045       .  S
C366        C367   1.393       .  A
C367        H373   1.082       .  S
N368        C369   1.359       .  A
N368        H376   1.045       .  S
C369        C370   1.405       .  A
C370        H374   1.081       .  S
C377        C382   1.385       .  A
C377        C378   1.402       .  A
C377        N383   1.342       .  A
C378        C379   1.402       .  A
C378        H389   1.082       .  S
C379        C388   1.374       .  A
C379        C380   1.380       .  A
C380        C381   1.401       .  A
C380        N386   1.339       .  A
C381        C382   1.399       .  A
C381        H390   1.082       .  S
C382        C385   1.374       .  A
N383        C384   1.355       .  A
N383        H393   1.045       .  S
C384        C385   1.393       .  A
C385        H391   1.083       .  S
N386        C387   1.359       .  A
N386        H394   1.041       .  S
C387        C388   1.406       .  A
C388        H392   1.079       .  S
C395        C400   1.379       .  A
C395        C396   1.402       .  A
C395        N401   1.338       .  A
C396        C397   1.399       .  A
C396        H407   1.083       .  S
C397        C406   1.378       .  A
C397        C398   1.384       .  A
C398        C399   1.406       .  A
C398        N404   1.343       .  A
C399        C400   1.403       .  A
C399        H408   1.082       .  S
C400        C403   1.380       .  A
N401        C402   1.362       .  A
N401        H411   1.040       .  S
C402        C403   1.406       .  A
C403        H409   1.081       .  S
N404        C405   1.357       .  A
N404        H412   1.045       .  S
C405        C406   1.394       .  A
C406        H410   1.082       .  S
C413        C418   1.381       .  A
C413        C414   1.408       .  A
C413        N419   1.348       .  A
C414        C415   1.408       .  A
C414        H425   1.082       .  S
C415        C424   1.384       .  A
C415        C416   1.384       .  A
C416        C417   1.407       .  A
C416        N422   1.348       .  A
C417        C418   1.406       .  A
C417        H426   1.082       .  S
C418        C421   1.380       .  A
N419        C420   1.361       .  A
N419        H429   1.045       .  S
C420        C421   1.405       .  A
C421        H427   1.082       .  S
N422        C423   1.358       .  A
N422        H430   1.045       .  S
C423        C424   1.399       .  A
C424        H428   1.082       .  S
C431        C436   1.384       .  A
C431        C432   1.404       .  A
C431        N437   1.344       .  A
C432        C433   1.403       .  A
C432        H443   1.082       .  S
C433        C442   1.377       .  A
C433        C434   1.381       .  A
C434        C435   1.409       .  A
C434        N440   1.348       .  A
C435        C436   1.409       .  A
C435        H444   1.082       .  S
C436        C439   1.385       .  A
N437        C438   1.356       .  A
N437        H447   1.045       .  S
C438        C439   1.399       .  A
C439        H445   1.082       .  S
N440        C441   1.361       .  A
N440        H448   1.045       .  S
C441        C442   1.403       .  A
C442        H446   1.082       .  S
C449        C454   1.383       .  A
C449        C450   1.408       .  A
C449        N455   1.348       .  A
C450        C451   1.407       .  A
C450        H461   1.082       .  S
C451        C460   1.382       .  A
C451        C452   1.380       .  A
C452        C453   1.411       .  A
C452        N458   1.349       .  A
C453        C454   1.411       .  A
C453        H462   1.082       .  S
C454        C457   1.388       .  A
N455        C456   1.358       .  A
N455        H465   1.045       .  S
C456        C457   1.401       .  A
C457        H463   1.082       .  S
N458        C459   1.363       .  A
N458        H466   1.045       .  S
C459        C460   1.406       .  A
C460        H464   1.079       .  S
C467        C472   1.380       .  A
C467        C468   1.398       .  A
C467        N473   1.340       .  A
C468        C469   1.399       .  A
C468        H479   1.083       .  S
C469        C478   1.370       .  A
C469        C470   1.386       .  A
C470        C471   1.401       .  A
C470        N476   1.343       .  A
C471        C472   1.400       .  A
C471        H480   1.082       .  S
C472        C475   1.370       .  A
N473        C474   1.358       .  A
N473        H483   1.041       .  S
C474        C475   1.405       .  A
C475        H481   1.081       .  S
N476        C477   1.353       .  A
N476        H484   1.045       .  S
C477        C478   1.393       .  A
C478        H482   1.083       .  S
C485        C490   1.383       .  A
C485        C486   1.403       .  A
C485        N491   1.345       .  A
C486        C487   1.403       .  A
C486        H497   1.083       .  S
C487        C496   1.374       .  A
C487        C488   1.384       .  A
C488        C489   1.407       .  A
C488        N494   1.350       .  A
C489        C490   1.408       .  A
C489        H498   1.082       .  S
C490        C493   1.379       .  A
N491        C492   1.360       .  A
N491        H501   1.044       .  S
C492        C493   1.402       .  A
C493        H499   1.082       .  S
N494        C495   1.357       .  A
N494        H502   1.044       .  S
C495        C496   1.397       .  A
C496        H500   1.083       .  S
C503        C508   1.379       .  A
C503        C504   1.403       .  A
C503        N509   1.343       .  A
C504        C505   1.402       .  A
C504        H515   1.082       .  S
C505        C514   1.376       .  A
C505        C506   1.383       .  A
C506        C507   1.411       .  A
C506        N512   1.351       .  A
C507        C508   1.411       .  A
C507        H516   1.082       .  S
C508        C511   1.384       .  A
N509        C510   1.363       .  A
N509        H519   1.042       .  S
C510        C511   1.408       .  A
C511        H517   1.080       .  S
N512        C513   1.359       .  A
N512        H520   1.044       .  S
C513        C514   1.396       .  A
C514        H518   1.083       .  S
C521        C526   1.385       .  A
C521        C522   1.401       .  A
C521        N527   1.341       .  A
C522        C523   1.400       .  A
C522        H533   1.082       .  S
C523        C532   1.373       .  A
C523        C524   1.383       .  A
C524        C525   1.401       .  A
C524        N530   1.340       .  A
C525        C526   1.399       .  A
C525        H534   1.082       .  S
C526        C529   1.375       .  A
N527        C528   1.354       .  A
N527        H537   1.045       .  S
C528        C529   1.392       .  A
C529        H535   1.082       .  S
N530        C531   1.359       .  A
N530        H538   1.044       .  S
C531        C532   1.399       .  A
C532        H536   1.082       .  S
C539        C544   1.384       .  A
C539        C540   1.408       .  A
C539        N545   1.348       .  A
C540        C541   1.408       .  A
C540        H551   1.082       .  S
C541        C550   1.383       .  A
C541        C542   1.381       .  A
C542        C543   1.401       .  A
C542        N548   1.340       .  A
C543        C544   1.400       .  A
C543        H552   1.082       .  S
C544        C547   1.375       .  A
N545        C546   1.358       .  A
N545        H555   1.045       .  S
C546        C547   1.394       .  A
C547        H553   1.083       .  S
N548        C549   1.359       .  A
N548        H556   1.045       .  S
C549        C550   1.406       .  A
C550        H554   1.081       .  S
C557        C562   1.384       .  A
C557        C558   1.402       .  A
C557        N563   1.341       .  A
C558        C559   1.400       .  A
C558        H569   1.083       .  S
C559        C568   1.374       .  A
C559        C560   1.381       .  A
C560        C561   1.408       .  A
C560        N566   1.346       .  A
C561        C562   1.407       .  A
C561        H570   1.082       .  S
C562        C565   1.386       .  A
N563        C564   1.355       .  A
N563        H573   1.045       .  S
C564        C565   1.398       .  A
C565        H571   1.082       .  S
N566        C567   1.360       .  A
N566        H574   1.048       .  S
C567        C568   1.403       .  A
C568        H572   1.081       .  S
C575        C580   1.384       .  A
C575        C576   1.405       .  A
C575        N581   1.346       .  A
C576        C577   1.405       .  A
C576        H587   1.082       .  S
C577        C586   1.376       .  A
C577        C578   1.379       .  A
C578        C579   1.409       .  A
C578        N584   1.348       .  A
C579        C580   1.409       .  A
C579        H588   1.082       .  S
C580        C583   1.384       .  A
N581        C582   1.356       .  A
N581        H591   1.045       .  S
C582        C583   1.398       .  A
C583        H589   1.082       .  S
N584        C585   1.364       .  A
N584        H592   1.042       .  S
C585        C586   1.407       .  A
C586        H590   1.080       .  S
C593        C598   1.385       .  A
C593        C594   1.399       .  A
C593        N599   1.340       .  A
C594        C595   1.398       .  A
C594        H605   1.082       .  S
C595        C604   1.371       .  A
C595        C596   1.383       .  A
C596        C597   1.404       .  A
C596        N602   1.343       .  A
C597        C598   1.403       .  A
C597        H606   1.082       .  S
C598        C601   1.378       .  A
N599        C600   1.353       .  A
N599        H609   1.045       .  S
C600        C601   1.395       .  A
C601        H607   1.083       .  S
N602        C603   1.360       .  A
N602        H610   1.044       .  S
C603        C604   1.398       .  A
C604        H608   1.082       .  S
C611        C616   1.385       .  A
C611        C612   1.404       .  A
C611        N617   1.348       .  A
C612        C613   1.405       .  A
C612        H623   1.082       .  S
C613        C622   1.373       .  A
C613        C614   1.383       .  A
C614        C615   1.400       .  A
C614        N620   1.344       .  A
C615        C616   1.401       .  A
C615        H624   1.083       .  S
C616        C619   1.370       .  A
N617        C618   1.355       .  A
N617        H627   1.045       .  S
C618        C619   1.394       .  A
C619        H625   1.083       .  S
N620        C621   1.358       .  A
N620        H628   1.043       .  S
C621        C622   1.402       .  A
C622        H626   1.083       .  S
C629        C634   1.384       .  A
C629        C630   1.412       .  A
C629        N635   1.352       .  A
C630        C631   1.412       .  A
C630        H641   1.082       .  S
C631        C640   1.386       .  A
C631        C632   1.381       .  A
C632        C633   1.403       .  A
C632        N638   1.344       .  A
C633        C634   1.402       .  A
C633        H642   1.082       .  S
C634        C637   1.376       .  A
N635        C636   1.359       .  A
N635        H645   1.045       .  S
C636        C637   1.394       .  A
C637        H643   1.083       .  S
N638        C639   1.361       .  A
N638        H646   1.042       .  S
C639        C640   1.407       .  A
C640        H644   1.082       .  S
C647        C652   1.382       .  A
C647        C648   1.402       .  A
C647        N653   1.343       .  A
C648        C649   1.402       .  A
C648        H659   1.082       .  S
C649        C658   1.375       .  A
C649        C650   1.385       .  A
C650        C651   1.403       .  A
C650        N656   1.345       .  A
C651        C652   1.404       .  A
C651        H660   1.082       .  S
C652        C655   1.374       .  A
N653        C654   1.358       .  A
N653        H663   1.045       .  S
C654        C655   1.404       .  A
C655        H661   1.081       .  S
N656        C657   1.355       .  A
N656        H664   1.045       .  S
C657        C658   1.392       .  A
C658        H662   1.083       .  S
C665        C670   1.385       .  A
C665        C666   1.402       .  A
C665        N671   1.339       .  A
C666        C667   1.399       .  A
C666        H677   1.083       .  S
C667        C676   1.374       .  A
C667        C668   1.382       .  A
C668        C669   1.402       .  A
C668        N674   1.340       .  A
C669        C670   1.401       .  A
C669        H678   1.082       .  S
C670        C673   1.378       .  A
N671        C672   1.354       .  A
N671        H681   1.045       .  S
C672        C673   1.392       .  A
C673        H679   1.083       .  S
N674        C675   1.360       .  A
N674        H682   1.043       .  S
C675        C676   1.400       .  A
C676        H680   1.082       .  S
C683        C688   1.384       .  A
C683        C684   1.403       .  A
C683        N689   1.340       .  A
C684        C685   1.400       .  A
C684        H695   1.083       .  S
C685        C694   1.377       .  A
C685        C686   1.381       .  A
C686        C687   1.406       .  A
C686        N692   1.343       .  A
C687        C688   1.404       .  A
C687        H696   1.082       .  S
C688        C691   1.384       .  A
N689        C690   1.356       .  A
N689        H699   1.045       .  S
C690        C691   1.395       .  A
C691        H697   1.082       .  S
N692        C693   1.361       .  A
N692        H700   1.045       .  S
C693        C694   1.402       .  A
C694        H698   1.081       .  S
