geometry optimzed in LAMMPS
_audit_creation_date              2020-11-30 
_audit_creation_method            'lammps2cif' 
_symmetry_space_group_name_H-M    'P1' 
_symmetry_Int_Tables_number       1 
_symmetry_cell_setting            triclinic 
loop_ 
_symmetry_equiv_pos_as_xyz 
  x,y,z 
_cell_length_a                    48.32160998 
_cell_length_b                    48.240330393122825 
_cell_length_c                    43.64539467457685 
_cell_angle_alpha                 85.09118163661117 
_cell_angle_beta                  93.89797980308106 
_cell_angle_gamma                 110.9476164338927 
loop_ 
_atom_site_label 
_atom_site_type_symbol 
_atom_site_fract_x 
_atom_site_fract_y 
_atom_site_fract_z 
_atom_site_charge 
O1          O  0.47676715  0.27993433  0.49867808    -0.74500
O2          O  0.47093989  0.19832788  0.00171687    -0.74500
O3          O  0.46965006  0.23528178  0.04518033    -0.74600
O4          O  0.47906195  0.24235858  0.45707883    -0.74600
O5          O  0.02699274  0.26107639  0.45903034    -0.74500
O6          O  0.01964779  0.25554576  0.04662826    -0.74500
O7          O  0.02085634  0.21858513  0.00355329    -0.74500
O8          O  0.02570314  0.29917138  0.50080317    -0.74600
Ni9        Ni  0.46779892  0.23695455  0.00091503     1.25400
Ni10       Ni  0.02892244  0.26060039  0.50308341     1.25400
C11         C  0.00041436  0.30229714  0.49967678     0.87700
C12         C  0.99691310  0.19591834  0.00179065     0.87600
C13         C  0.49436948  0.24504869  0.06062140     0.87700
C14         C  0.50384269  0.25266782  0.44364773     0.87800
O15         O  0.47694878  0.20119283  0.25413250    -0.74500
O16         O  0.47255024  0.27882444  0.24863696    -0.74500
O17         O  0.47372160  0.24039666  0.20745156    -0.74600
O18         O  0.47591518  0.23968352  0.29535583    -0.74600
O19         O  0.02394535  0.25899726  0.29636921    -0.74500
O20         O  0.02344061  0.26165324  0.20825158    -0.74500
O21         O  0.02167021  0.29933398  0.25023524    -0.74500
O22         O  0.02568625  0.22123685  0.25436402    -0.74600
Ni23       Ni  0.47307597  0.23934676  0.25139340     1.25400
Ni24       Ni  0.02546427  0.26101433  0.25237362     1.25400
C25         C  0.50218853  0.19811746  0.25465000     0.87700
C26         C  0.49630586  0.30179899  0.24865542     0.87600
C27         C  0.49802406  0.25075394  0.19321410     0.87700
C28         C  0.50081666  0.24941835  0.31040394     0.87800
O29         O  0.42134479  0.46930181  0.48487038    -0.80900
O30         O  0.05949116  0.48710794  0.48896467    -0.65600
O31         O  0.47685412  0.47607683  0.00513880    -1.12200
C32         C  0.50606306  0.07981287  0.00000394     1.05900
O33         O  0.08143248  0.03469459  0.00756519    -0.78800
O34         O  0.03995179  0.03227308  0.04807305    -0.66400
Ni35       Ni  0.44876868  0.44897739  0.48235076     1.34900
C36         C  0.01405794  0.02531159  0.05800884     0.84700
O37         O  0.01358147  0.44108726  0.50724459    -0.79400
O38         O  0.47073159  0.42300256  0.47866427    -0.89700
C39         C  0.08074892  0.50796986  0.99549340     0.84300
O40         O  0.46318165  0.47118458  0.44501401    -0.67900
O41         O  0.03011186  0.07867683  0.01358787    -0.87100
C42         C  0.48925048  0.47806762  0.43556771     0.85100
C43         C  0.99373735  0.41960765  0.49484318     1.06700
H44         H  0.02547454  0.02865848  0.46883089     0.38500
O45         O  0.02224696  0.02274766  0.49046013    -1.09800
O46         O  0.49124139  0.02416027  0.04055797    -0.66500
Ni47       Ni  0.48211263  0.01755020  0.99721627     1.26300
O48         O  0.01063804  0.47513431  0.45367446    -0.66700
O49         O  0.48674421  0.05809631  0.98742291    -0.79000
C50         C  0.41987809  0.99401801  0.49868579     0.84500
O51         O  0.44216950  0.01110302  0.00579634    -0.66100
Ni52       Ni  0.05309316  0.05376706  0.00999339     1.27400
Ni53       Ni  0.01950004  0.48181113  0.49701406     1.26100
H54         H  0.47336704  0.47007792  0.02667925     0.39000
O55         O  0.41947855  0.47132189  0.23174613    -0.80900
O56         O  0.05635980  0.48714515  0.23845233    -0.65600
O57         O  0.47644561  0.47662274  0.25449550    -1.12200
C58         C  0.51191508  0.08121881  0.25588465     1.05900
O59         O  0.08326760  0.03186046  0.26095775    -0.78800
O60         O  0.04131251  0.02815204  0.30175080    -0.66400
Ni61       Ni  0.44563052  0.44950215  0.23038854     1.34900
C62         C  0.01527855  0.02140426  0.31125069     0.84700
O63         O  0.00995571  0.44091014  0.25420787    -0.79400
O64         O  0.46647921  0.42239006  0.22755829    -0.89700
C65         C  0.08002609  0.50785510  0.24599217     0.84300
O66         O  0.46097567  0.47106417  0.19313004    -0.67900
O67         O  0.03381197  0.07734111  0.27074778    -0.87100
C68         C  0.98742071  0.47808688  0.18396565     0.85100
C69         C  0.98967045  0.41978253  0.24177752     1.06700
H70         H  0.02852953  0.03187568  0.21911299     0.38500
O71         O  0.02527767  0.02500827  0.24048848    -1.09800
O72         O  0.49363382  0.02329451  0.29339323    -0.66500
Ni73       Ni  0.48548624  0.01932730  0.24963601     1.26300
O74         O  0.00885742  0.47729833  0.20233425    -0.66700
O75         O  0.49211697  0.06071514  0.24196146    -0.79000
C76         C  0.42196021  0.99295964  0.24993508     0.84500
O77         O  0.44553790  0.01350337  0.25821122    -0.66100
Ni78       Ni  0.05586430  0.05188129  0.26512197     1.27400
Ni79       Ni  0.01643175  0.48197810  0.24606976     1.26100
H80         H  0.47298379  0.47013053  0.27592822     0.39000
O81         O  0.29917824  0.02487180  0.50282033    -0.74500
O82         O  0.21978887  0.02531582  0.49680858    -0.74500
O83         O  0.26183771  0.02718715  0.04289023    -0.74600
O84         O  0.25966793  0.02518585  0.45593747    -0.74600
O85         O  0.24312396  0.47297536  0.45799154    -0.74500
O86         O  0.24182601  0.47586858  0.04458737    -0.74500
O87         O  0.20188593  0.47478930  0.99782724    -0.74500
O88         O  0.28124099  0.47472815  0.00392144    -0.74600
Ni89       Ni  0.26014004  0.02694381  0.49965362     1.25400
Ni90       Ni  0.24100455  0.47308441  0.00101370     1.25400
C91         C  0.30317843  0.99988373  0.50555613     0.87700
C92         C  0.19875354  0.00295674  0.99843040     0.87600
C93         C  0.25244426  0.00287646  0.05971909     0.87700
C94         C  0.25069500  0.00038743  0.44315126     0.87800
O95         O  0.30168809  0.02704886  0.25229771    -0.74500
O96         O  0.22204213  0.02713434  0.24736139    -0.74500
O97         O  0.26261401  0.02749428  0.29382118    -0.74600
O98         O  0.26119502  0.02688836  0.20594762    -0.74600
O99         O  0.23981891  0.47445016  0.20696168    -0.74500
O100        O  0.24147534  0.47490944  0.29471678    -0.74500
O101        O  0.20076045  0.47432178  0.24855891    -0.74500
O102        O  0.28042144  0.47519786  0.25294430    -0.74600
Ni103      Ni  0.26251666  0.02893424  0.24973709     1.25400
Ni104      Ni  0.24001084  0.47296639  0.25093655     1.25400
C105        C  0.30588736  0.00216554  0.25496521     0.87700
C106        C  0.20011528  0.00232979  0.24845955     0.87600
C107        C  0.25400805  0.00279570  0.31016794     0.87700
C108        C  0.25191430  0.00201346  0.19324282     0.87800
C109        C  0.25397811  0.00263266  0.34421068    -0.00200
C110        C  0.24887584  0.47322339  0.35937707    -0.12100
C111        C  0.24938220  0.47181060  0.39163558     0.02000
C112        C  0.25126168  0.00052840  0.40913291    -0.00300
C113        C  0.27193529  0.02486751  0.39316153    -0.12000
C114        C  0.27368275  0.02598593  0.36112239     0.01900
H115        H  0.24680934  0.45340378  0.34801346     0.14900
H116        H  0.28731020  0.04286676  0.40583068     0.14900
C117        C  0.29687953  0.05061995  0.34656986     0.36600
C118        C  0.24799615  0.44404475  0.40798226     0.36500
N119        N  0.31563856  0.07026308  0.33502310    -0.43800
N120        N  0.24700544  0.42177736  0.42095964    -0.43800
C121        C  0.25255994  0.00349677  0.09384541    -0.00200
C122        C  0.24086446  0.47391053  0.10849159    -0.12100
C123        C  0.23948789  0.47242138  0.14050803     0.02000
C124        C  0.25126675  0.00190312  0.15906467    -0.00300
C125        C  0.26765877  0.02806871  0.14205370    -0.12000
C126        C  0.26847667  0.02915484  0.10992486     0.01900
H127        H  0.23437322  0.45327776  0.09710566     0.14900
H128        H  0.28032704  0.04783981  0.15391897     0.14900
C129        C  0.28641275  0.05686369  0.09452762     0.36600
C130        C  0.22883487  0.44315397  0.15611078     0.36500
N131        N  0.30084087  0.07920244  0.08247368    -0.43800
N132        N  0.22011148  0.41955542  0.16827643    -0.43800
C133        C  0.10886895  0.50452092  0.24259387    -0.00200
C134        C  0.11245564  0.47750150  0.25239178    -0.12100
C135        C  0.14039693  0.47467794  0.25297170     0.02000
C136        C  0.16929397  0.00237321  0.24653132    -0.00300
C137        C  0.16392591  0.02717212  0.23183981    -0.12000
C138        C  0.13561654  0.02901857  0.23077019     0.01900
H139        H  0.09359145  0.45888667  0.26082237     0.14900
H140        H  0.18190115  0.04523798  0.22114374     0.14900
C141        C  0.13101355  0.05450969  0.21457598     0.36600
C142        C  0.14252139  0.44645041  0.26425341     0.36500
N143        N  0.12708039  0.07474648  0.20145481    -0.43800
N144        N  0.14410212  0.42376579  0.27325260    -0.43800
C145        C  0.33643697  0.00106777  0.25638392    -0.00200
C146        C  0.33659987  0.47177330  0.25594474    -0.12100
C147        C  0.36443425  0.46936288  0.25504492     0.02000
C148        C  0.39278433  0.99541335  0.25449751    -0.00300
C149        C  0.39032174  0.02361999  0.25340462    -0.12000
C150        C  0.36259617  0.02670771  0.25443653     0.01900
H151        H  0.31744588  0.45153311  0.25899114     0.14900
H152        H  0.41005161  0.04339099  0.25086830     0.14900
C153        C  0.36202754  0.05649300  0.25322315     0.36600
C154        C  0.36618047  0.43998986  0.25970995     0.36500
N155        N  0.36185004  0.08047296  0.25238363    -0.43800
N156        N  0.36747645  0.41644027  0.26355216    -0.43800
C157        C  0.16825715  0.00394612  0.99675362    -0.00200
C158        C  0.16289432  0.02817939  0.48790681    -0.12100
C159        C  0.13491124  0.03058429  0.48771974     0.02000
C160        C  0.10992408  0.50505087  0.99220949    -0.00300
C161        C  0.11353226  0.47788409  0.00118534    -0.12000
C162        C  0.14156057  0.47519928  0.00199969     0.01900
H163        H  0.18172126  0.04779311  0.48144219     0.14900
H164        H  0.09459356  0.45899345  0.00896726     0.14900
C165        C  0.14359934  0.44694650  0.01329000     0.36600
C166        C  0.13257117  0.05921718  0.47865869     0.36500
N167        N  0.14499142  0.42423178  0.02246724    -0.43800
N168        N  0.13080306  0.08221163  0.47153611    -0.43800
C169        C  0.33375737  0.99925774  0.50677255    -0.00200
C170        C  0.35675837  0.02395843  0.49414235    -0.12100
C171        C  0.38529505  0.02319055  0.49196394     0.02000
C172        C  0.39116567  0.99732144  0.50256078    -0.00300
C173        C  0.36927955  0.47375941  0.01612550    -0.12000
C174        C  0.34110069  0.47508735  0.01869861     0.01900
H175        H  0.35222291  0.04355532  0.48487452     0.14900
H176        H  0.37453874  0.45525177  0.02750567     0.14900
C177        C  0.32043573  0.45221821  0.03792861     0.36600
C178        C  0.40751122  0.04841013  0.47698215     0.36500
N179        N  0.30397940  0.43397530  0.05350011    -0.43800
N180        N  0.42520600  0.06863998  0.46486845    -0.43800
C181        C  0.99438017  0.48710001  0.40348946    -0.00200
C182        C  0.51632760  0.48140271  0.38819688    -0.12100
C183        C  0.52253323  0.49083432  0.35737762     0.02000
C184        C  0.00909327  0.01090112  0.34397633    -0.00300
C185        C  0.98303684  0.01153255  0.35598036    -0.12000
C186        C  0.97529960  0.00095313  0.38620967     0.01900
H187        H  0.52807780  0.46828678  0.40072149     0.14900
H188        H  0.96861358  0.02063307  0.34176835     0.14900
C189        C  0.94889506  0.00376470  0.39709024     0.36600
C190        C  0.54392024  0.48187834  0.34322817     0.36500
N191        N  0.92778036  0.00612280  0.40575902    -0.43800
N192        N  0.56101339  0.47465775  0.33187971    -0.43800
C193        C  0.99358853  0.48732622  0.15103027    -0.00200
C194        C  0.52281951  0.49928141  0.14277490    -0.12100
C195        C  0.53013974  0.50988660  0.11249571     0.02000
C196        C  0.00878544  0.01622805  0.09119686    -0.00300
C197        C  0.97930957  0.00262826  0.10016949    -0.12000
C198        C  0.97255069  0.99212724  0.13058532     0.01900
H199        H  0.54059896  0.50238972  0.16018714     0.14900
H200        H  0.96117161  0.99968282  0.08321394     0.14900
C201        C  0.94156790  0.97831867  0.13737104     0.36600
C202        C  0.56118333  0.52437890  0.10622765     0.36500
N203        N  0.91666933  0.96743392  0.14255618    -0.43800
N204        N  0.58608786  0.53593017  0.10132643    -0.43800
C205        C  0.99449615  0.33231974  0.24809086    -0.00200
C206        C  0.01854744  0.35683694  0.23700881    -0.12100
C207        C  0.01755869  0.38559577  0.23479456     0.02000
C208        C  0.99212837  0.39016294  0.24375359    -0.00300
C209        C  0.46756747  0.36506293  0.25417267    -0.12000
C210        C  0.46871101  0.33644044  0.25650860     0.01900
H211        H  0.03797477  0.35349743  0.22942442     0.14900
H212        H  0.44801127  0.36846874  0.26134607     0.14900
C213        C  0.44369052  0.31262383  0.26939725     0.36600
C214        C  0.04213845  0.40967569  0.22158974     0.36500
N215        N  0.42361572  0.29362807  0.27978882    -0.43800
N216        N  0.06177809  0.42875588  0.21062180    -0.43800
C217        C  0.50385857  0.16780314  0.25511873    -0.00200
C218        C  0.03163597  0.16545836  0.25838555    -0.12100
C219        C  0.03502883  0.13784469  0.25860344     0.02000
C220        C  0.50973159  0.11123483  0.25530588    -0.00300
C221        C  0.48186614  0.11411759  0.25021924    -0.12000
C222        C  0.47863959  0.14185737  0.25024515     0.01900
H223        H  0.05127170  0.18509621  0.26135569     0.14900
H224        H  0.46234193  0.09450543  0.24660961     0.14900
C225        C  0.44908088  0.14264191  0.24503080     0.36600
C226        C  0.06480967  0.13733319  0.26191545     0.36500
N227        N  0.42534210  0.14314613  0.24094243    -0.43800
N228        N  0.08869056  0.13701021  0.26458009    -0.43800
C229        C  0.50148824  0.24959612  0.34457920    -0.00200
C230        C  0.02534119  0.26707728  0.35979264    -0.12100
C231        C  0.02678614  0.26862181  0.39179760     0.02000
C232        C  0.50382753  0.25253275  0.40953779    -0.00300
C233        C  0.47876626  0.23309422  0.39428374    -0.12000
C234        C  0.47739641  0.23136781  0.36234618     0.01900
H235        H  0.04443572  0.28059780  0.34679234     0.14900
H236        H  0.46014508  0.21868954  0.40742879     0.14900
C237        C  0.45124066  0.20989953  0.34881472     0.36600
C238        C  0.05375894  0.28858343  0.40563836     0.36500
N239        N  0.43027203  0.19263655  0.33805950    -0.43800
N240        N  0.07540345  0.30461118  0.41664579    -0.43800
C241        C  0.49478102  0.24586470  0.09460122    -0.00200
C242        C  0.01908214  0.26859153  0.10874547    -0.12100
C243        C  0.02034783  0.27127834  0.14057234     0.01800
C244        C  0.49709144  0.25010256  0.15920500    -0.00300
C245        C  0.47462979  0.22684873  0.14502275    -0.12000
C246        C  0.47332324  0.22451906  0.11311222     0.01900
H247        H  0.03608457  0.28469224  0.09485343     0.14900
H248        H  0.45833501  0.20999186  0.15901458     0.14900
C249        C  0.45049868  0.19928716  0.10028382     0.36600
C250        C  0.04395563  0.29601020  0.15328935     0.36500
N251        N  0.43223168  0.17896695  0.09011979    -0.43800
N252        N  0.06282196  0.31597121  0.16330823    -0.43800
C253        C  0.99891531  0.33245057  0.49953167    -0.00200
C254        C  0.02275668  0.35710641  0.48828886    -0.12100
C255        C  0.02181783  0.38587281  0.48701889     0.02000
C256        C  0.99669423  0.39023602  0.49711006    -0.00300
C257        C  0.46686311  0.36458849  0.00763393    -0.12000
C258        C  0.46685563  0.33553406  0.00958746     0.01900
H259        H  0.04189354  0.35386326  0.47981540     0.14900
H260        H  0.44782684  0.36875036  0.01513351     0.14900
C261        C  0.44162810  0.31227493  0.02283315     0.36600
C262        C  0.04602672  0.41024890  0.47363003     0.36500
N263        N  0.42142975  0.29371179  0.03356716    -0.43800
N264        N  0.06529519  0.42971331  0.46260077    -0.43800
C265        C  0.49803263  0.16547192  0.00027533    -0.00200
C266        C  0.47546905  0.14009067  0.01239102    -0.12100
C267        C  0.47733539  0.11174705  0.01208935     0.02000
C268        C  0.50177945  0.10853993  0.99897113    -0.00300
C269        C  0.02478901  0.13451077  0.98543083    -0.12000
C270        C  0.02297040  0.16272013  0.98577139     0.01900
H271        H  0.45690879  0.14249693  0.02307986     0.14900
H272        H  0.04354740  0.13204507  0.97516443     0.14900
C273        C  0.04586534  0.18747798  0.97096016     0.36600
C274        C  0.45523388  0.08663648  0.02735882     0.36500
N275        N  0.06421054  0.20724610  0.95903084    -0.43800
N276        N  0.44262607  0.07180085  0.54520990    -0.43800
O277        O  0.46826492  0.27689542  0.99999666    -0.74500
O278        O  0.48012302  0.20187245  0.50332332    -0.74500
O279        O  0.47821717  0.23979344  0.54490528    -0.74600
O280        O  0.46955267  0.24021561  0.95680134    -0.74600
O281        O  0.01874904  0.25966794  0.95883738    -0.74500
O282        O  0.02732627  0.25884690  0.54704339    -0.74500
O283        O  0.02858066  0.22067725  0.50517977    -0.74500
O284        O  0.01759769  0.29655889  0.00153387    -0.74600
Ni285      Ni  0.47682003  0.24030293  0.50092235     1.25400
Ni286      Ni  0.02090852  0.25820894  0.00274093     1.25400
C287        C  0.99239920  0.29978564  0.00087094     0.87700
C288        C  0.00445051  0.19807297  0.50432716     0.87600
C289        C  0.50268413  0.24926242  0.56073998     0.87700
C290        C  0.49433222  0.25052972  0.94333410     0.87800
O291        O  0.47540606  0.20449530  0.75162645    -0.74500
O292        O  0.47397704  0.28336126  0.74704232    -0.74500
O293        O  0.47695421  0.24589311  0.70571576    -0.74600
O294        O  0.47246442  0.24209202  0.79315616    -0.74600
O295        O  0.02135394  0.25935752  0.79780603    -0.74500
O296        O  0.02659725  0.26395239  0.71010059    -0.74500
O297        O  0.02330141  0.30127722  0.75197915    -0.74500
O298        O  0.02446021  0.22185235  0.75595014    -0.74600
Ni299      Ni  0.47299924  0.24333900  0.74924192     1.25400
Ni300      Ni  0.02573023  0.26225243  0.75416802     1.25400
C301        C  0.50022017  0.20039698  0.75396506     0.87700
C302        C  0.49821311  0.30567073  0.74896143     0.87600
C303        C  0.50223860  0.25532033  0.69333243     0.87700
C304        C  0.49631413  0.25087170  0.81001833     0.87800
O305        O  0.41919733  0.46970277  0.98299303    -0.80900
O306        O  0.05705969  0.48637705  0.98966439    -0.65600
O307        O  0.47956982  0.47721655  0.50556772    -1.12200
C308        C  0.50934873  0.08074388  0.50360029     1.05900
O309        O  0.08031539  0.03112644  0.51067829    -0.78800
O310        O  0.03847504  0.02757147  0.55102155    -0.66400
Ni311      Ni  0.44597418  0.44839956  0.98158118     1.34900
C312        C  0.01253906  0.02126970  0.56053564     0.84700
O313        O  0.01012043  0.44025502  0.00678593    -0.79400
O314        O  0.46723550  0.42169529  0.97912973    -0.89700
C315        C  0.08313801  0.50835647  0.49558655     0.84300
O316        O  0.46143305  0.46982477  0.94416575    -0.67900
O317        O  0.03057588  0.07617314  0.51925547    -0.87100
C318        C  0.48759425  0.47574549  0.93537019     0.85100
C319        C  0.98948484  0.41879208  0.99506924     1.06700
H320        H  0.02534517  0.02948389  0.96596531     0.38500
O321        O  0.02266114  0.02419703  0.98775591    -1.09800
O322        O  0.49183926  0.02446668  0.54242305    -0.66500
Ni323      Ni  0.48316763  0.01891173  0.49896373     1.26300
O324        O  0.00897984  0.47469132  0.95367878    -0.66700
O325        O  0.48974408  0.06003782  0.48989701    -0.79000
C326        C  0.41887926  0.99042313  0.99732099     0.84500
O327        O  0.44356864  0.01408674  0.50728372    -0.66100
Ni328      Ni  0.05273635  0.05077525  0.51418803     1.27400
Ni329      Ni  0.01686360  0.48133792  0.99690167     1.26100
H330        H  0.47648712  0.47132793  0.52718367     0.39000
O331        O  0.42306709  0.47481347  0.73202208    -0.80900
O332        O  0.05996613  0.49093717  0.74030168    -0.65600
O333        O  0.48007648  0.48051779  0.75530634    -1.12200
C334        C  0.50689074  0.08232256  0.75399935     1.05900
O335        O  0.07848401  0.03403229  0.75676736    -0.78800
O336        O  0.03697974  0.02768655  0.79952245    -0.66400
Ni337      Ni  0.45011480  0.45406925  0.72983250     1.34900
C338        C  0.01119361  0.02082287  0.80983280     0.84700
O339        O  0.01321249  0.44419074  0.75481791    -0.79400
O340        O  0.47183901  0.42790678  0.72616438    -0.89700
C341        C  0.08341266  0.51174628  0.74830008     0.84300
O342        O  0.46617920  0.47766030  0.69371137    -0.67900
O343        O  0.02699748  0.07620250  0.77063827    -0.87100
C344        C  0.99177313  0.48327874  0.68486263     0.85100
C345        C  0.99328821  0.42332888  0.74160624     1.06700
H346        H  0.02219824  0.03005452  0.71800513     0.38500
O347        O  0.01940485  0.02425932  0.73961765    -1.09800
O348        O  0.48990499  0.02522926  0.79290785    -0.66500
Ni349      Ni  0.48054475  0.02028540  0.74930648     1.26300
O350        O  0.01284608  0.48120637  0.70307277    -0.66700
O351        O  0.48694175  0.06160395  0.74052287    -0.79000
C352        C  0.41719015  0.99405379  0.74989471     0.84500
O353        O  0.44072565  0.01452886  0.75844993    -0.66100
Ni354      Ni  0.05009530  0.05231995  0.76302692     1.27400
Ni355      Ni  0.01969555  0.48529688  0.74703799     1.26100
H356        H  0.47622516  0.47337841  0.77649647     0.39000
O357        O  0.29982440  0.02440195  0.00105141    -0.74500
O358        O  0.22123311  0.02731614  0.99699746    -0.74500
O359        O  0.25939859  0.02532448  0.54355997    -0.74600
O360        O  0.25936655  0.02519692  0.95530290    -0.74600
O361        O  0.24153923  0.47399396  0.95705427    -0.74500
O362        O  0.24359096  0.47499746  0.54568184    -0.74500
O363        O  0.20370552  0.47427055  0.49885226    -0.74500
O364        O  0.28280489  0.47348120  0.50500037    -0.74600
Ni365      Ni  0.26125388  0.02781073  0.99892467     1.25400
Ni366      Ni  0.24266677  0.47216495  0.50204268     1.25400
C367        C  0.30295270  0.99897109  0.00386623     0.87700
C368        C  0.19769391  0.00064291  0.49790758     0.87600
C369        C  0.25009659  0.00068910  0.55989464     0.87700
C370        C  0.24979618  0.00018083  0.94293906     0.87800
O371        O  0.29540167  0.02515291  0.75214813    -0.74500
O372        O  0.21592725  0.02484274  0.74604901    -0.74500
O373        O  0.25582189  0.02562754  0.79297084    -0.74600
O374        O  0.25549442  0.02417158  0.70534040    -0.74600
O375        O  0.24181955  0.47652864  0.70673293    -0.74500
O376        O  0.24446186  0.47732418  0.79433351    -0.74500
O377        O  0.20347924  0.47717480  0.74896126    -0.74500
O378        O  0.28297877  0.47716620  0.75231550    -0.74600
Ni379      Ni  0.25624103  0.02668482  0.74898655     1.25400
Ni380      Ni  0.24257086  0.47528156  0.75069287     1.25400
C381        C  0.30002523  0.00051890  0.75491481     0.87700
C382        C  0.19400409  0.00012560  0.74760270     0.87600
C383        C  0.24742434  0.00111932  0.80964305     0.87700
C384        C  0.24691653  0.99916336  0.69295352     0.87800
C385        C  0.24804439  0.00143643  0.84372056    -0.00200
C386        C  0.24674483  0.47446666  0.85852231    -0.12100
C387        C  0.24560750  0.47254204  0.89062737     0.02000
C388        C  0.24937660  0.99992526  0.90891651    -0.00300
C389        C  0.24690098  0.02456441  0.89090746    -0.12000
C390        C  0.24625345  0.02557789  0.85871947     0.01900
H391        H  0.24217000  0.45417726  0.84696025     0.14900
H392        H  0.24507699  0.04307686  0.90202138     0.14900
C393        C  0.24288499  0.05137782  0.84191353     0.36600
C394        C  0.23869033  0.44342920  0.90637666     0.36500
N395        N  0.24022267  0.07213472  0.82859290    -0.43800
N396        N  0.23313128  0.41999640  0.91875152    -0.43800
C397        C  0.24928690  0.00079305  0.59388675    -0.00200
C398        C  0.23063367  0.47852560  0.60785925    -0.12100
C399        C  0.22912373  0.47828413  0.63979402     0.02000
C400        C  0.24754083  0.99887342  0.65895512    -0.00300
C401        C  0.24711395  0.02413753  0.64062912    -0.12000
C402        C  0.24807554  0.02539188  0.60853699     0.01900
H403        H  0.21378613  0.46143790  0.59534973     0.14900
H404        H  0.24584511  0.04307511  0.65139642     0.14900
C405        C  0.24719541  0.05207958  0.59142933     0.36600
C406        C  0.20472429  0.45527677  0.65462260     0.36500
N407        N  0.24661518  0.07352934  0.57777310    -0.43800
N408        N  0.18508516  0.43676484  0.66629324    -0.43800
C409        C  0.11242421  0.50854660  0.74558647    -0.00200
C410        C  0.11630233  0.48203447  0.75698576    -0.12100
C411        C  0.14419153  0.47911162  0.75742281     0.02000
C412        C  0.16339574  0.00071665  0.74573001    -0.00300
C413        C  0.15832124  0.02511619  0.72967181    -0.12000
C414        C  0.13044873  0.02796988  0.72885529     0.01900
H415        H  0.09773481  0.46398608  0.76680840     0.14900
H416        H  0.17628095  0.04220480  0.71782548     0.14900
C417        C  0.12650637  0.05330895  0.71161288     0.36600
C418        C  0.14700145  0.45205807  0.77168824     0.36500
N419        N  0.12347618  0.07359322  0.69763069    -0.43800
N420        N  0.14920794  0.43042832  0.78332850    -0.43800
C421        C  0.33093300  0.00034730  0.75628618    -0.00200
C422        C  0.33958957  0.47392893  0.75672105    -0.12100
C423        C  0.36759585  0.47178134  0.75610921     0.02000
C424        C  0.38797911  0.99632307  0.75450518    -0.00300
C425        C  0.38431982  0.02391725  0.74930601    -0.12000
C426        C  0.35623289  0.02621803  0.75017966     0.01900
H427        H  0.32053779  0.45363704  0.76000424     0.14900
H428        H  0.40332304  0.04363813  0.74354710     0.14900
C429        C  0.35431736  0.05537749  0.74399659     0.36600
C430        C  0.36979921  0.44262059  0.76111158     0.36500
N431        N  0.35294530  0.07882622  0.73912997    -0.43800
N432        N  0.37155937  0.41927422  0.76518780    -0.43800
C433        C  0.16697111  0.00112311  0.49658044    -0.00200
C434        C  0.16444520  0.03084233  0.98660563    -0.12100
C435        C  0.13646788  0.03340951  0.98529101     0.02000
C436        C  0.11219393  0.50508502  0.49279609    -0.00300
C437        C  0.11600867  0.47850556  0.50405706    -0.12000
C438        C  0.14400339  0.47572193  0.50510222     0.01900
H439        H  0.18339695  0.05006133  0.97951972     0.14900
H440        H  0.09729104  0.46027732  0.51337171     0.14900
C441        C  0.14648813  0.44835703  0.51886356     0.36600
C442        C  0.13406720  0.06144177  0.97363333     0.36500
N443        N  0.14837472  0.42642325  0.53001906    -0.43800
N444        N  0.13233297  0.08393456  0.96413913    -0.43800
C445        C  0.33301859  0.99709559  0.00410723    -0.00200
C446        C  0.35614050  0.02095669  0.99052217    -0.12100
C447        C  0.38427207  0.01928756  0.98813039     0.02000
C448        C  0.38985721  0.99356755  0.99994507    -0.00300
C449        C  0.37134205  0.47329636  0.51732739    -0.12000
C450        C  0.34303144  0.47429834  0.51993581     0.01900
H451        H  0.35199367  0.04060267  0.98072251     0.14900
H452        H  0.37694457  0.45511115  0.52901301     0.14900
C453        C  0.32277520  0.45181074  0.53986577     0.36600
C454        C  0.40634648  0.04332337  0.97150947     0.36500
N455        N  0.30672564  0.43392719  0.55610144    -0.43800
N456        N  0.42393345  0.06247165  0.95794864    -0.43800
C457        C  0.99432081  0.48512555  0.90261488    -0.00200
C458        C  0.52313279  0.50535441  0.89640901    -0.12100
C459        C  0.53042824  0.51751434  0.86656686     0.02000
C460        C  0.00583280  0.00972859  0.84246212    -0.00300
C461        C  0.98141716  0.01223763  0.85619665    -0.12000
C462        C  0.97482484  0.00182273  0.88668392     0.01900
H463        H  0.53980753  0.51212980  0.91492064     0.14900
H464        H  0.96751121  0.02280199  0.84319197     0.14900
C465        C  0.95016656  0.00655068  0.89945731     0.36600
C466        C  0.55974429  0.53927860  0.86205021     0.36500
N467        N  0.93040830  0.01042014  0.90956335    -0.43800
N468        N  0.58320950  0.55682793  0.85864424    -0.43800
C469        C  0.99821029  0.49367616  0.65235940    -0.00200
C470        C  0.51712576  0.48383156  0.63732419    -0.12100
C471        C  0.52300384  0.49246260  0.60630493     0.02000
C472        C  0.00638100  0.01105949  0.59318666    -0.00300
C473        C  0.97666206  0.99655995  0.60103390    -0.12000
C474        C  0.96911922  0.98585941  0.63119556     0.01900
H475        H  0.52601476  0.46795070  0.64920000     0.14900
H476        H  0.95902909  0.99309589  0.58340260     0.14900
C477        C  0.93808434  0.97043468  0.63693443     0.36600
C478        C  0.53997928  0.47903850  0.59067031     0.36500
N479        N  0.91317531  0.95809438  0.64133015    -0.43800
N480        N  0.55340193  0.46822431  0.57797880    -0.43800
C481        C  0.99707650  0.33539571  0.74838268    -0.00200
C482        C  0.02218497  0.35997065  0.73964103    -0.12100
C483        C  0.02149982  0.38887661  0.73719655     0.02000
C484        C  0.99541482  0.39354861  0.74374994    -0.00300
C485        C  0.47118440  0.37021153  0.75358022    -0.12000
C486        C  0.47174889  0.34136357  0.75633325     0.01900
H487        H  0.04217215  0.35656780  0.73389687     0.14900
H488        H  0.45164409  0.37406131  0.76010478     0.14900
C489        C  0.44635613  0.31798319  0.76917667     0.36600
C490        C  0.04707040  0.41307137  0.72594550     0.36500
N491        N  0.42602696  0.29937705  0.77964053    -0.43800
N492        N  0.06739269  0.43238875  0.71647620    -0.43800
C493        C  0.50099028  0.16972267  0.75373665    -0.00200
C494        C  0.02825853  0.16519558  0.75629647    -0.12100
C495        C  0.03047059  0.13708393  0.75616377     0.02000
C496        C  0.50522442  0.11253560  0.75279807    -0.00300
C497        C  0.47745424  0.11580324  0.75094446    -0.12000
C498        C  0.47505106  0.14389684  0.75150205     0.01900
H499        H  0.04848936  0.18441552  0.75815332     0.14900
H500        H  0.45745897  0.09623270  0.74969085     0.14900
C501        C  0.44555845  0.14511635  0.74994858     0.36600
C502        C  0.05981859  0.13542195  0.75779494     0.36500
N503        N  0.42186860  0.14596339  0.74870190    -0.43800
N504        N  0.08328463  0.13400477  0.75914183    -0.43800
C505        C  0.49478936  0.25081110  0.84403778    -0.00200
C506        C  0.02014124  0.26642875  0.86061050    -0.12100
C507        C  0.02044668  0.26768732  0.89251391     0.02000
C508        C  0.49470326  0.25202197  0.90908666    -0.00300
C509        C  0.46903555  0.23550132  0.89233191    -0.12000
C510        C  0.46878384  0.23478997  0.86024276     0.01900
H511        H  0.04039595  0.27843741  0.84869133     0.14900
H512        H  0.44910107  0.22256844  0.90437052     0.14900
C513        C  0.44162674  0.21683941  0.84491746     0.36600
C514        C  0.04787515  0.28562584  0.90741196     0.36500
N515        N  0.41982924  0.20250848  0.83265573    -0.43800
N516        N  0.06987730  0.30004220  0.91925998    -0.43800
C517        C  0.50241388  0.24992933  0.59479662    -0.00200
C518        C  0.02851200  0.26749842  0.61048230    -0.12100
C519        C  0.02932574  0.26994134  0.64237793     0.01800
C520        C  0.50321448  0.25458128  0.65938776    -0.00300
C521        C  0.47757441  0.23676504  0.64353343    -0.12000
C522        C  0.47693042  0.23418537  0.61180941     0.01900
H523        H  0.04824998  0.27974363  0.59783640     0.14900
H524        H  0.45782282  0.22424297  0.65605133     0.14900
C525        C  0.44986936  0.21451657  0.59782404     0.36600
C526        C  0.05657707  0.28899680  0.65662144     0.36500
N527        N  0.42810669  0.19866795  0.58684208    -0.43800
N528        N  0.07853495  0.30436594  0.66773641    -0.43800
C529        C  0.99149276  0.33023930  0.00038453    -0.00200
C530        C  0.01569842  0.35431972  0.98874846    -0.12100
C531        C  0.01577705  0.38345933  0.98724734     0.02000
C532        C  0.99140616  0.38892043  0.99770909    -0.00300
C533        C  0.47186021  0.36583040  0.50592445    -0.12000
C534        C  0.47316512  0.33725048  0.50831609     0.01900
H535        H  0.03436280  0.35033677  0.98007876     0.14900
H536        H  0.45210206  0.36907231  0.51274040     0.14900
C537        C  0.44831863  0.31331509  0.52136586     0.36600
C538        C  0.04011636  0.40704906  0.97302164     0.36500
N539        N  0.42849256  0.29418902  0.53200142    -0.43800
N540        N  0.05943571  0.42587989  0.96126544    -0.43800
C541        C  0.50641646  0.16849009  0.50363227    -0.00200
C542        C  0.48389147  0.14419413  0.51749987    -0.12100
C543        C  0.48394605  0.11518368  0.51717877     0.02000
C544        C  0.50687098  0.11025740  0.50283551    -0.00300
C545        C  0.03018150  0.13390369  0.49283502    -0.12000
C546        C  0.02997070  0.16280125  0.49244240     0.01900
H547        H  0.46642532  0.14791260  0.52897581     0.14900
H548        H  0.04906976  0.13028514  0.48418694     0.14900
C549        C  0.05446735  0.18653343  0.47860785     0.36600
C550        C  0.46101215  0.09106841  0.53270814     0.36500
N551        N  0.07404563  0.20539046  0.46725197    -0.43800
N552        N  0.43782270  0.06644513  0.03985230    -0.43800
O553        O  0.47226891  0.77781694  0.49734771    -0.74500
O554        O  0.47858556  0.70035527  0.00099055    -0.74500
O555        O  0.47640976  0.73726190  0.04355210    -0.74600
O556        O  0.47596301  0.74047300  0.45574090    -0.74600
O557        O  0.02410094  0.76106171  0.45829926    -0.74500
O558        O  0.02591869  0.75762548  0.04538004    -0.74500
O559        O  0.02780082  0.72091884  0.00234786    -0.74500
O560        O  0.02065330  0.79764666  0.50055601    -0.74600
Ni561      Ni  0.47483077  0.73875995  0.99958595     1.25400
Ni562      Ni  0.02525314  0.75969961  0.50231342     1.25400
C563        C  0.99507817  0.80017913  0.49904734     0.87700
C564        C  0.00381695  0.69818967  0.00133008     0.87600
C565        C  0.50095936  0.74662290  0.05919338     0.87700
C566        C  0.50082947  0.75100654  0.44245865     0.87800
O567        O  0.47747915  0.70142675  0.25201550    -0.74500
O568        O  0.47440136  0.77963546  0.24572992    -0.74500
O569        O  0.47677386  0.74132228  0.20506204    -0.74600
O570        O  0.47539559  0.73981674  0.29281186    -0.74600
O571        O  0.02379999  0.76018143  0.29540520    -0.74500
O572        O  0.02553166  0.76061618  0.20770147    -0.74500
O573        O  0.02324041  0.79981076  0.24772772    -0.74500
O574        O  0.02566392  0.72069969  0.25538261    -0.74600
Ni575      Ni  0.47431321  0.73989901  0.24882539     1.25400
Ni576      Ni  0.02634427  0.76098943  0.25166157     1.25400
C577        C  0.50247685  0.69774691  0.25410393     0.87700
C578        C  0.49830739  0.80242123  0.24626776     0.87600
C579        C  0.50167597  0.75109113  0.19188797     0.87700
C580        C  0.49973796  0.74941682  0.30882852     0.87800
O581        O  0.41941589  0.97051265  0.48722126    -0.80900
O582        O  0.05714367  0.98698458  0.49129393    -0.65600
O583        O  0.47826207  0.97672293  0.00667114    -1.12200
C584        C  0.50850799  0.57889562  0.00282608     1.05900
O585        O  0.08080879  0.53214554  0.00492776    -0.78800
O586        O  0.03940935  0.52690384  0.04693013    -0.66400
Ni587      Ni  0.44629456  0.94954198  0.48481551     1.34900
C588        C  0.01360970  0.52033063  0.05702514     0.84700
O589        O  0.01037649  0.94001196  0.50782243    -0.79400
O590        O  0.46737298  0.92281681  0.48123738    -0.89700
C591        C  0.08210559  0.01132711  0.99681050     0.84300
O592        O  0.46087499  0.97121803  0.44721553    -0.67900
O593        O  0.03042725  0.57577166  0.01695549    -0.87100
C594        C  0.48694755  0.97803606  0.43776627     0.85100
C595        C  0.99002396  0.91884639  0.49529548     1.06700
H596        H  0.02694925  0.52822695  0.46537756     0.38500
O597        O  0.02424707  0.52287685  0.48715350    -1.09800
O598        O  0.49188631  0.52211225  0.04028527    -0.66500
Ni599      Ni  0.48255843  0.51734298  0.99675764     1.26300
O600        O  0.00860990  0.97601601  0.45565377    -0.66700
O601        O  0.48911840  0.55860286  0.98838839    -0.79000
C602        C  0.42146275  0.49252012  0.49668251     0.84500
O603        O  0.44298542  0.51207306  0.00558954    -0.66100
Ni604      Ni  0.05287217  0.55099091  0.01025264     1.27400
Ni605      Ni  0.01694696  0.98136567  0.49914041     1.26100
H606        H  0.47563580  0.97128752  0.02842333     0.39000
O607        O  0.42212557  0.97031416  0.23719417    -0.80900
O608        O  0.05977384  0.98937115  0.23845357    -0.65600
O609        O  0.48018902  0.97787713  0.25675665    -1.12200
C610        C  0.50948452  0.57973951  0.25430385     1.05900
O611        O  0.08027215  0.53143495  0.25706150    -0.78800
O612        O  0.03849455  0.52504370  0.29897785    -0.66400
Ni613      Ni  0.44976912  0.95091772  0.23209877     1.34900
C614        C  0.01264811  0.51835703  0.30897555     0.84700
O615        O  0.01342719  0.94227782  0.25376035    -0.79400
O616        O  0.47197913  0.92582217  0.22546101    -0.89700
C617        C  0.08322551  0.00919202  0.24808768     0.84300
O618        O  0.46420755  0.97571779  0.19616699    -0.67900
O619        O  0.03003331  0.57481656  0.27109151    -0.87100
C620        C  0.99004295  0.98346328  0.18582186     0.85100
C621        C  0.99371486  0.92209505  0.23949355     1.06700
H622        H  0.02491390  0.52990592  0.21694552     0.38500
O623        O  0.02182187  0.52348122  0.23844834    -1.09800
O624        O  0.49134016  0.52176409  0.29118928    -0.66500
Ni625      Ni  0.48235526  0.51807444  0.24739280     1.26300
O626        O  0.01146644  0.98048376  0.20296230    -0.66700
O627        O  0.48950123  0.55967226  0.24002975    -0.79000
C628        C  0.41912524  0.49298936  0.24614418     0.84500
O629        O  0.44255568  0.51250567  0.25643206    -0.66100
Ni630      Ni  0.05244446  0.55033436  0.26314497     1.27400
Ni631      Ni  0.01991315  0.98359396  0.24696591     1.26100
H632        H  0.47694945  0.97122453  0.27818674     0.39000
O633        O  0.30092442  0.52301542  0.49991161    -0.74500
O634        O  0.22176478  0.52376014  0.49488176    -0.74500
O635        O  0.25986619  0.52529891  0.04026265    -0.74600
O636        O  0.26073736  0.52244436  0.45367673    -0.74600
O637        O  0.24163053  0.97566258  0.45942565    -0.74500
O638        O  0.24250507  0.97777836  0.04738278    -0.74500
O639        O  0.20237993  0.97787504  0.00117970    -0.74500
O640        O  0.28029811  0.97497438  0.00567163    -0.74600
Ni641      Ni  0.26203698  0.52519308  0.49726128     1.25400
Ni642      Ni  0.24075300  0.97485199  0.00364274     1.25400
C643        C  0.30489598  0.49804515  0.50331919     0.87700
C644        C  0.19755509  0.49957135  0.99507378     0.87600
C645        C  0.25074571  0.50090865  0.05697467     0.87700
C646        C  0.25201615  0.49744627  0.44126961     0.87800
O647        O  0.29776277  0.52463735  0.24908387    -0.74500
O648        O  0.21814466  0.52380137  0.24482086    -0.74500
O649        O  0.25883187  0.52436478  0.29092381    -0.74600
O650        O  0.25704424  0.52387910  0.20310082    -0.74600
O651        O  0.24350850  0.97741606  0.20973682    -0.74500
O652        O  0.24481657  0.97795670  0.29743403    -0.74500
O653        O  0.20455601  0.97761716  0.25115979    -0.74500
O654        O  0.28373418  0.97760785  0.25600875    -0.74600
Ni655      Ni  0.25852436  0.52592585  0.24687217     1.25400
Ni656      Ni  0.24356444  0.97593140  0.25371989     1.25400
C657        C  0.30233186  0.49998536  0.25166862     0.87700
C658        C  0.19624913  0.49902164  0.24585847     0.87600
C659        C  0.25051286  0.49975740  0.30743765     0.87700
C660        C  0.24820672  0.49900499  0.19041713     0.87800
C661        C  0.25141471  0.49976135  0.34167724    -0.00200
C662        C  0.23344228  0.97826169  0.36019924    -0.12100
C663        C  0.23194971  0.97694590  0.39222944     0.02000
C664        C  0.25206170  0.49733744  0.40710524    -0.00300
C665        C  0.25498321  0.52392047  0.38940378    -0.12000
C666        C  0.25477168  0.52542737  0.35723129     0.01900
H667        H  0.21810615  0.96021052  0.34756309     0.14900
H668        H  0.25715690  0.54380086  0.40071047     0.14900
C669        C  0.25751448  0.55365801  0.34112843     0.36600
C670        C  0.20976898  0.95142836  0.40683158     0.36500
N671        N  0.25979367  0.57637512  0.32840081    -0.43800
N672        N  0.19201751  0.93090126  0.41845064    -0.43800
C673        C  0.25020364  0.50126944  0.09103787    -0.00200
C674        C  0.23585725  0.97747595  0.11086513    -0.12100
C675        C  0.23491734  0.97645240  0.14294231     0.02000
C676        C  0.24806909  0.49891478  0.15623136    -0.00300
C677        C  0.25718250  0.52631846  0.13875695    -0.12000
C678        C  0.25820130  0.52779086  0.10664254     0.01900
H679        H  0.22306595  0.95771417  0.09904974     0.14900
H680        H  0.26358919  0.54692334  0.15017794     0.14900
C681        C  0.26732359  0.55695951  0.09072185     0.36600
C682        C  0.21624900  0.94907691  0.15830466     0.36500
N683        N  0.27458797  0.58042463  0.07818507    -0.43800
N684        N  0.20120376  0.92709319  0.17045982    -0.43800
C685        C  0.11207326  0.00597709  0.24490072    -0.00200
C686        C  0.11695319  0.98070111  0.25856928    -0.12100
C687        C  0.14517413  0.97857656  0.25937564     0.02000
C688        C  0.16553985  0.49947025  0.24379635    -0.00300
C689        C  0.16145785  0.52606430  0.23279805    -0.12000
C690        C  0.13355931  0.52870246  0.23196061     0.01900
H691        H  0.09890609  0.96306302  0.26970703     0.14900
H692        H  0.18018971  0.54508105  0.22483572     0.14900
C693        C  0.13078168  0.55635968  0.21951376     0.36600
C694        C  0.14879934  0.95233994  0.27487241     0.36500
N695        N  0.12850980  0.57845631  0.20941671    -0.43800
N696        N  0.15161857  0.93126257  0.28725869    -0.43800
C697        C  0.33308804  0.49957597  0.25272657    -0.00200
C698        C  0.33933452  0.97294940  0.25923152    -0.12100
C699        C  0.36695467  0.96991642  0.25864221     0.02000
C700        C  0.38985770  0.49517287  0.25043759    -0.00300
C701        C  0.38684276  0.52313000  0.24881902    -0.12000
C702        C  0.35885647  0.52560997  0.25000875     0.01900
H703        H  0.31986052  0.95294121  0.26178235     0.14900
H704        H  0.40630848  0.54309649  0.24580635     0.14900
C705        C  0.35760216  0.55516519  0.24823141     0.36600
C706        C  0.36801865  0.94026916  0.26326104     0.36500
N707        N  0.35679484  0.57892996  0.24696405    -0.43800
N708        N  0.36876390  0.91650507  0.26715384    -0.43800
C709        C  0.16682343  0.50014063  0.99334272    -0.00200
C710        C  0.16477714  0.52616712  0.48231928    -0.12100
C711        C  0.13689692  0.52894985  0.48148656     0.02000
C712        C  0.11143117  0.00875110  0.99448766    -0.00300
C713        C  0.11491087  0.98164449  0.00379702    -0.12000
C714        C  0.14286874  0.97894720  0.00501609     0.01900
H715        H  0.18344636  0.54481876  0.47358722     0.14900
H716        H  0.09581765  0.96270573  0.01118209     0.14900
C717        C  0.14453272  0.95039290  0.01571089     0.36600
C718        C  0.13430127  0.55654755  0.46859477     0.36500
N719        N  0.14559098  0.92738830  0.02422243    -0.43800
N720        N  0.13239393  0.57872792  0.45825528    -0.43800
C721        C  0.33540191  0.49758108  0.50417590    -0.00200
C722        C  0.35712855  0.52035388  0.48757160    -0.12100
C723        C  0.38561535  0.51958899  0.48547268     0.02000
C724        C  0.39266726  0.49562530  0.50006076    -0.00300
C725        C  0.36697726  0.96982585  0.01371974    -0.12000
C726        C  0.33881363  0.97133744  0.01602361     0.01900
H727        H  0.35161578  0.53838049  0.47540895     0.14900
H728        H  0.37118802  0.95000135  0.02284089     0.14900
C729        C  0.31655104  0.94618311  0.03109128     0.36600
C730        C  0.40675418  0.54298894  0.46721988     0.36500
N731        N  0.29863469  0.92605158  0.04307829    -0.43800
N732        N  0.42364706  0.56197438  0.45277397    -0.43800
C733        C  0.99369813  0.98896585  0.40527176    -0.00200
C734        C  0.51962097  0.98850974  0.39344896    -0.12100
C735        C  0.52740477  0.99904986  0.36326211     0.02000
C736        C  0.00711484  0.50741979  0.34153013    -0.00300
C737        C  0.98456248  0.51278040  0.35593486    -0.12000
C738        C  0.97823980  0.50305627  0.38659956     0.01900
H739        H  0.53456018  0.98038941  0.40803597     0.14900
H740        H  0.97213890  0.52521177  0.34337009     0.14900
C741        C  0.95609773  0.51115172  0.40041728     0.36600
C742        C  0.55488642  0.99803063  0.35321334     0.36500
N743        N  0.93842920  0.51775253  0.41145806    -0.43800
N744        N  0.57693795  0.99718181  0.34530785    -0.43800
C745        C  0.99566665  0.99479875  0.15317109    -0.00200
C746        C  0.52502080  0.00814399  0.14460352    -0.12100
C747        C  0.53158373  0.01910129  0.11415078     0.02000
C748        C  0.00776485  0.50899759  0.08949938    -0.00300
C749        C  0.97818828  0.49375060  0.09745108    -0.12000
C750        C  0.97089815  0.48292353  0.12766991     0.01900
H751        H  0.54314102  0.01135255  0.16162685     0.14900
H752        H  0.96046183  0.49009142  0.07990129     0.14900
C753        C  0.93992322  0.46717199  0.13351634     0.36600
C754        C  0.56230463  0.03511866  0.10740526     0.36500
N755        N  0.91503412  0.45463568  0.13787881    -0.43800
N756        N  0.58692457  0.04811731  0.10216320    -0.43800
C757        C  0.99643695  0.83356735  0.24324429    -0.00200
C758        C  0.02233357  0.85835906  0.23729859    -0.12100
C759        C  0.02197249  0.88740155  0.23542988     0.02000
C760        C  0.99546102  0.89212468  0.24004945    -0.00300
C761        C  0.46953839  0.86673620  0.24594271    -0.12000
C762        C  0.46974681  0.83773225  0.24761530     0.01900
H763        H  0.04288754  0.85510353  0.23355832     0.14900
H764        H  0.44890368  0.87018420  0.24888573     0.14900
C765        C  0.44192013  0.81378626  0.25320544     0.36600
C766        C  0.04847887  0.91173572  0.22659309     0.36500
N767        N  0.41952724  0.79472946  0.25761601    -0.43800
N768        N  0.06959618  0.93108704  0.21886775    -0.43800
C769        C  0.50347300  0.66706690  0.25514565    -0.00200
C770        C  0.02998831  0.66393587  0.26068593    -0.12100
C771        C  0.03261114  0.63596495  0.26071919     0.02000
C772        C  0.50789667  0.60990696  0.25455351    -0.00300
C773        C  0.48011469  0.61312780  0.25246688    -0.12000
C774        C  0.47760367  0.64115313  0.25297118     0.01900
H775        H  0.04997685  0.68327273  0.26338918     0.14900
H776        H  0.46015837  0.59356382  0.25079876     0.14900
C777        C  0.44803927  0.64220581  0.25120533     0.36600
C778        C  0.06212723  0.63474365  0.26373988     0.36500
N779        N  0.42430291  0.64293645  0.24983979    -0.43800
N780        N  0.08581348  0.63388539  0.26616641    -0.43800
C781        C  0.49937532  0.74952545  0.34301932    -0.00200
C782        C  0.02540147  0.75716994  0.36002191    -0.12100
C783        C  0.02657394  0.75757740  0.39215447     0.02000
C784        C  0.50123003  0.75092519  0.40828085    -0.00300
C785        C  0.47432564  0.74484136  0.39098729    -0.12000
C786        C  0.47311935  0.74412214  0.35888142     0.01900
H787        H  0.04579871  0.76126971  0.34846410     0.14900
H788        H  0.45393999  0.74077607  0.40255301     0.14900
C789        C  0.44453667  0.73824600  0.34310656     0.36600
C790        C  0.05519915  0.76348201  0.40786753     0.36500
N791        N  0.42160356  0.73352818  0.33052630    -0.43800
N792        N  0.07822092  0.76830692  0.42028218    -0.43800
C793        C  0.50085527  0.74664683  0.09325480    -0.00200
C794        C  0.02546519  0.76700588  0.10849021    -0.12100
C795        C  0.02591248  0.76921168  0.14032221     0.01800
C796        C  0.50198896  0.75047720  0.15791058    -0.00300
C797        C  0.47733836  0.73050622  0.14258487    -0.12000
C798        C  0.47643075  0.72853944  0.11068538     0.01900
H799        H  0.04413889  0.78166804  0.09557933     0.14900
H800        H  0.45861312  0.71612198  0.15560684     0.14900
C801        C  0.45016829  0.70748393  0.09682337     0.36600
C802        C  0.05083813  0.79204725  0.15396911     0.36500
N803        N  0.42896091  0.69067770  0.08591555    -0.43800
N804        N  0.07078965  0.81065005  0.16453918    -0.43800
C805        C  0.99320064  0.83038943  0.49849237    -0.00200
C806        C  0.01777968  0.85516046  0.48883140    -0.12100
C807        C  0.01732308  0.88411710  0.48780928     0.02000
C808        C  0.99205334  0.88887177  0.49688339    -0.00300
C809        C  0.47208299  0.86579805  0.00876461    -0.12000
C810        C  0.47260937  0.83686623  0.01012134     0.01900
H811        H  0.03729100  0.85190429  0.48137236     0.14900
H812        H  0.45278245  0.86935858  0.01641519     0.14900
C813        C  0.44742106  0.81297167  0.02261467     0.36600
C814        C  0.04217161  0.90830248  0.47525499     0.36500
N815        N  0.42720743  0.79384661  0.03259540    -0.43800
N816        N  0.06189834  0.92755176  0.46466187    -0.43800
C817        C  0.50558879  0.66708316  0.00225990    -0.00200
C818        C  0.48040034  0.64215555  0.01018966    -0.12100
C819        C  0.48074999  0.61317049  0.01067742     0.02000
C820        C  0.50646053  0.60867218  0.00253366    -0.00300
C821        C  0.03101592  0.63422949  0.99242416    -0.12000
C822        C  0.03073528  0.66313323  0.99203718     0.01900
H823        H  0.46050849  0.64528006  0.01671103     0.14900
H824        H  0.05056363  0.63080655  0.98524969     0.14900
C825        C  0.05666641  0.68714871  0.98116134     0.36600
C826        C  0.45535243  0.58869886  0.02183761     0.36500
N827        N  0.07753516  0.70623361  0.97238582    -0.43800
N828        N  0.43624860  0.56927234  0.53033324    -0.43800
O829        O  0.47480926  0.77867201  0.99849067    -0.74500
O830        O  0.47822459  0.70039446  0.50214643    -0.74500
O831        O  0.47463238  0.73766878  0.54372716    -0.74600
O832        O  0.47647507  0.74147384  0.95569877    -0.74600
O833        O  0.02613155  0.76237038  0.95711945    -0.74500
O834        O  0.02301873  0.75696258  0.54611075    -0.74500
O835        O  0.02637699  0.72031977  0.50390294    -0.74500
O836        O  0.02473130  0.79924624  0.00026539    -0.74600
Ni837      Ni  0.47351664  0.73836418  0.49965040     1.25400
Ni838      Ni  0.02790783  0.76070477  0.00134384     1.25400
C839        C  0.99952209  0.80249738  0.99951588     0.87700
C840        C  0.00283257  0.69711182  0.50284149     0.87600
C841        C  0.49905299  0.74780002  0.55953360     0.87700
C842        C  0.50106669  0.75204711  0.94202124     0.87800
O843        O  0.47572564  0.70326350  0.75219378    -0.74500
O844        O  0.47212876  0.78122690  0.74649344    -0.74500
O845        O  0.47462820  0.74319266  0.70537336    -0.74600
O846        O  0.47369124  0.74126941  0.79335184    -0.74600
O847        O  0.02289650  0.76109950  0.79511825    -0.74500
O848        O  0.02345120  0.76196427  0.70748311    -0.74500
O849        O  0.02103854  0.80068641  0.74810031    -0.74500
O850        O  0.02486836  0.72224958  0.75462821    -0.74600
Ni851      Ni  0.47231235  0.74159783  0.74924568     1.25400
Ni852      Ni  0.02483399  0.76220734  0.75137898     1.25400
C853        C  0.50089143  0.69996698  0.75432607     0.87700
C854        C  0.49590756  0.80415226  0.74724306     0.87600
C855        C  0.49949853  0.75313534  0.69209734     0.87700
C856        C  0.49827757  0.75093210  0.80901001     0.87800
O857        O  0.41921638  0.96687035  0.98661847    -0.80900
O858        O  0.05891371  0.99005107  0.98901001    -0.65600
O859        O  0.47755590  0.97751838  0.50787912    -1.12200
C860        C  0.51045132  0.58040007  0.50245006     1.05900
O861        O  0.08318279  0.53240430  0.50537598    -0.78800
O862        O  0.04187318  0.52835370  0.54714774    -0.66400
Ni863      Ni  0.44760681  0.94760594  0.98406405     1.34900
C864        C  0.01608160  0.52180460  0.55728701     0.84700
O865        O  0.01389642  0.94264900  0.00759180    -0.79400
O866        O  0.47039355  0.92239967  0.98039417    -0.89700
C867        C  0.08060571  0.00789792  0.49932392     0.84300
O868        O  0.46105393  0.96971108  0.94629607    -0.67900
O869        O  0.03263298  0.57640883  0.51571728    -0.87100
C870        C  0.48711994  0.97762520  0.93650153     0.85100
C871        C  0.99398488  0.92074650  0.99575276     1.06700
H872        H  0.02502819  0.52804774  0.96535113     0.38500
O873        O  0.02216315  0.52266462  0.98700523    -1.09800
O874        O  0.49385430  0.52362361  0.54073169    -0.66500
Ni875      Ni  0.48470782  0.51844883  0.49717657     1.26300
O876        O  0.00964464  0.97667691  0.95432869    -0.66700
O877        O  0.49070618  0.55963931  0.48886541    -0.79000
C878        C  0.41946824  0.49254346  0.99570439     0.84500
O879        O  0.44491328  0.51268841  0.50576888    -0.66100
Ni880      Ni  0.05513243  0.55147940  0.50987302     1.27400
Ni881      Ni  0.01879533  0.98341323  0.99758914     1.26100
H882        H  0.47453212  0.97186235  0.52948955     0.39000
O883        O  0.41738958  0.97148354  0.73696127    -0.80900
O884        O  0.05447656  0.98841445  0.74107839    -0.65600
O885        O  0.47535017  0.97900947  0.75756850    -1.12200
C886        C  0.51089455  0.58329961  0.75696941     1.05900
O887        O  0.08327352  0.53527085  0.75918255    -0.78800
O888        O  0.04064779  0.52811090  0.80023975    -0.66400
Ni889      Ni  0.44485847  0.95132832  0.73369510     1.34900
C890        C  0.01459543  0.52102339  0.80980857     0.84700
O891        O  0.00821353  0.94194223  0.75760516    -0.79400
O892        O  0.46687170  0.92550430  0.72931852    -0.89700
C893        C  0.07815918  0.00978852  0.74716695     0.84300
O894        O  0.45966587  0.97431785  0.69678450    -0.67900
O895        O  0.03187763  0.57767494  0.77228385    -0.87100
C896        C  0.98527293  0.97959514  0.68724103     0.85100
C897        C  0.98859935  0.92107443  0.74402563     1.06700
H898        H  0.02824761  0.53335998  0.71822975     0.38500
O899        O  0.02487151  0.52672537  0.73962680    -1.09800
O900        O  0.49352450  0.52467659  0.79306789    -0.66500
Ni901      Ni  0.48530991  0.52180167  0.74914413     1.26300
O902        O  0.00643659  0.97738913  0.70520956    -0.66700
O903        O  0.49151011  0.56310504  0.74238079    -0.79000
C904        C  0.42221306  0.49588902  0.74705966     0.84500
O905        O  0.44532654  0.51530588  0.75793554    -0.66100
Ni906      Ni  0.05493206  0.55370791  0.76475505     1.27400
Ni907      Ni  0.01447852  0.98300928  0.74868804     1.26100
H908        H  0.47207551  0.97288826  0.77910526     0.39000
O909        O  0.29917655  0.52425077  0.99922408    -0.74500
O910        O  0.21962735  0.52425441  0.99382353    -0.74500
O911        O  0.26230832  0.52454309  0.54120616    -0.74600
O912        O  0.25903685  0.52344239  0.95294152    -0.74600
O913        O  0.24047252  0.97568857  0.95958081    -0.74500
O914        O  0.24145165  0.97582200  0.54721031    -0.74500
O915        O  0.20196027  0.97584539  0.50032466    -0.74500
O916        O  0.28102147  0.97536596  0.50635598    -0.74600
Ni917      Ni  0.26002951  0.52606422  0.99641111     1.25400
Ni918      Ni  0.24090829  0.97392761  0.50344086     1.25400
C919        C  0.30329413  0.49933379  0.00241415     0.87700
C920        C  0.19959292  0.49916974  0.49613790     0.87600
C921        C  0.25322514  0.50011772  0.55791060     0.87700
C922        C  0.25052162  0.49851181  0.94045755     0.87800
O923        O  0.30056836  0.52661127  0.74893849    -0.74500
O924        O  0.22139545  0.52666936  0.74466151    -0.74500
O925        O  0.26179482  0.52676855  0.79060834    -0.74600
O926        O  0.26014048  0.52608428  0.70280321    -0.74600
O927        O  0.23785843  0.97466587  0.70957713    -0.74500
O928        O  0.23876279  0.97611688  0.79725513    -0.74500
O929        O  0.19836562  0.97531782  0.75074411    -0.74500
O930        O  0.27811113  0.97570694  0.75612351    -0.74600
Ni931      Ni  0.26157176  0.52828538  0.74659175     1.25400
Ni932      Ni  0.23762756  0.97367778  0.75357214     1.25400
C933        C  0.30499788  0.50190937  0.75136128     0.87700
C934        C  0.19932980  0.50207928  0.74649819     0.87600
C935        C  0.25338305  0.50213664  0.80706421     0.87700
C936        C  0.25063919  0.50111327  0.69028088     0.87800
C937        C  0.25358852  0.50190854  0.84122622    -0.00200
C938        C  0.25075458  0.97688148  0.86176980    -0.12100
C939        C  0.25171271  0.97602945  0.89398287     0.02000
C940        C  0.25135993  0.49861333  0.90639856    -0.00300
C941        C  0.25859694  0.52606884  0.88911793    -0.12000
C942        C  0.25982493  0.52800727  0.85707120     0.01900
H943        H  0.25276715  0.95844233  0.85068780     0.14900
H944        H  0.26323371  0.54639527  0.90063043     0.14900
C945        C  0.26727046  0.55721853  0.84145016     0.36600
C946        C  0.25660922  0.95103736  0.91097190     0.36500
N947        N  0.27328730  0.58071041  0.82912367    -0.43800
N948        N  0.26073976  0.93110233  0.92455223    -0.43800
C949        C  0.25317706  0.50077430  0.59177676    -0.00200
C950        C  0.24968176  0.97550812  0.61219807    -0.12100
C951        C  0.24913500  0.97442413  0.64434059     0.02000
C952        C  0.25056596  0.50072719  0.65637502    -0.00300
C953        C  0.27310701  0.52300207  0.64029541    -0.12000
C954        C  0.27476911  0.52308500  0.60837719     0.01900
H955        H  0.25107855  0.95663511  0.60141172     0.14900
H956        H  0.29001325  0.54001321  0.65283498     0.14900
C957        C  0.29976971  0.54538959  0.59368574     0.36600
C958        C  0.25170896  0.94847074  0.66156815     0.36500
N959        N  0.32000872  0.56321215  0.58217867    -0.43800
N960        N  0.25397773  0.92770569  0.67525548    -0.43800
C961        C  0.10687491  0.00607836  0.74426283    -0.00200
C962        C  0.11152029  0.98120336  0.75945343    -0.12100
C963        C  0.13946326  0.97839466  0.76049618     0.02000
C964        C  0.16884878  0.50301258  0.74574126    -0.00300
C965        C  0.16462519  0.52931282  0.73387105    -0.12000
C966        C  0.13691720  0.53231791  0.73387868     0.01900
H967        H  0.09355231  0.96452917  0.77171784     0.14900
H968        H  0.18313080  0.54784343  0.72465729     0.14900
C969        C  0.13422262  0.56001599  0.72146039     0.36600
C970        C  0.14323457  0.95343674  0.77864116     0.36500
N971        N  0.13215952  0.58226099  0.71156812    -0.43800
N972        N  0.14614408  0.93347233  0.79337459    -0.43800
C973        C  0.33580191  0.50159934  0.75275845    -0.00200
C974        C  0.33514746  0.97308169  0.76321217    -0.12100
C975        C  0.36320830  0.97093271  0.76267231     0.02000
C976        C  0.39282551  0.49770592  0.75130263    -0.00300
C977        C  0.38953911  0.52552800  0.74911535    -0.12000
C978        C  0.36142871  0.52776651  0.74968769     0.01900
H979        H  0.31640929  0.95314539  0.76902592     0.14900
H980        H  0.40888474  0.54556836  0.74582273     0.14900
C981        C  0.35989776  0.55723239  0.74629285     0.36600
C982        C  0.36609164  0.94253137  0.77169582     0.36500
N983        N  0.35886080  0.58092331  0.74353660    -0.43800
N984        N  0.36841441  0.91984425  0.77921594    -0.43800
C985        C  0.16896283  0.49992520  0.49439370    -0.00200
C986        C  0.16283482  0.52699064  0.98336417    -0.12100
C987        C  0.13493627  0.52966720  0.98273727     0.02000
C988        C  0.10994340  0.00546189  0.49616985    -0.00300
C989        C  0.11369233  0.97823955  0.50415359    -0.12000
C990        C  0.14177706  0.97580500  0.50456475     0.01900
H991        H  0.18168960  0.54625402  0.97615157     0.14900
H992        H  0.09480724  0.95907626  0.51148516     0.14900
C993        C  0.14389501  0.94732466  0.51472253     0.36600
C994        C  0.13275922  0.55801657  0.97197304     0.36500
N995        N  0.14534873  0.92442261  0.52298972    -0.43800
N996        N  0.13124155  0.58081712  0.96336775    -0.43800
C997        C  0.33386100  0.49881131  0.00337055    -0.00200
C998        C  0.35592314  0.52164166  0.98711764    -0.12100
C999        C  0.38426127  0.52038702  0.98487773     0.02000
C1000       C  0.39084899  0.49604287  0.99913122    -0.00300
C1001       C  0.36863276  0.97313668  0.51618413    -0.12000
C1002       C  0.34026073  0.97392746  0.51869265     0.01900
H1003       H  0.35073387  0.53995185  0.97519149     0.14900
H1004       H  0.37325318  0.95341613  0.52489612     0.14900
C1005       C  0.31859315  0.94849500  0.53405001     0.36600
C1006       C  0.40571122  0.54336226  0.96648342     0.36500
N1007       N  0.30137921  0.92806862  0.54644749    -0.43800
N1008       N  0.42307666  0.56165743  0.95181809    -0.43800
C1009       C  0.99280005  0.98824611  0.90424321    -0.00200
C1010       C  0.51643645  0.98544499  0.88986221    -0.12100
C1011       C  0.52323970  0.99632160  0.85949573     0.02000
C1012       C  0.00847877  0.50886828  0.84187374    -0.00300
C1013       C  0.97989597  0.48883655  0.84842084    -0.12000
C1014       C  0.97267611  0.47685408  0.87837647     0.01900
H1015       H  0.52987243  0.97420896  0.90263988     0.14900
H1016       H  0.96308961  0.48231385  0.82999772     0.14900
C1017       C  0.94317266  0.45561645  0.88323351     0.36600
C1018       C  0.54758937  0.99128639  0.84643467     0.36500
N1019       N  0.91951864  0.43855391  0.88692633    -0.43800
N1020       N  0.56711239  0.98721832  0.83604808    -0.43800
C1021       C  0.99165392  0.98970183  0.65458539    -0.00200
C1022       C  0.52134256  0.99911468  0.64526994    -0.12100
C1023       C  0.52899405  0.00950811  0.61500047     0.02000
C1024       C  0.01107170  0.51240806  0.59016942    -0.00300
C1025       C  0.98997216  0.52003927  0.60462555    -0.12000
C1026       C  0.98354079  0.51101288  0.63539404     0.01900
H1027       H  0.53875337  0.99801248  0.66184409     0.14900
H1028       H  0.97861469  0.53342704  0.59189490     0.14900
C1029       C  0.96266262  0.52093134  0.64920811     0.36600
C1030       C  0.55976217  0.01773933  0.60773203     0.36500
N1031       N  0.94600931  0.52896896  0.66027950    -0.43800
N1032       N  0.58441238  0.02422269  0.60199805    -0.43800
C1033       C  0.99356100  0.83363155  0.74602418    -0.00200
C1034       C  0.01818436  0.85875386  0.73723649    -0.12100
C1035       C  0.01724537  0.88752705  0.73665971     0.02000
C1036       C  0.99131500  0.89153448  0.74496605    -0.00300
C1037       C  0.46668026  0.86735877  0.75243797    -0.12000
C1038       C  0.46745514  0.83861196  0.75332840     0.01900
H1039       H  0.03812144  0.85593963  0.73037600     0.14900
H1040       H  0.44639674  0.87039994  0.75784296     0.14900
C1041       C  0.44082488  0.81426615  0.76198605     0.36600
C1042       C  0.04250977  0.91237984  0.72588919     0.36500
N1043       N  0.41943250  0.79481844  0.76887559    -0.43800
N1044       N  0.06266949  0.93222588  0.71694800    -0.43800
C1045       C  0.50244039  0.66955341  0.75599600    -0.00200
C1046       C  0.03057907  0.66631438  0.75889468    -0.12100
C1047       C  0.03376562  0.63857863  0.75960038     0.02000
C1048       C  0.50841681  0.61305692  0.75698456    -0.00300
C1049       C  0.48026672  0.61550108  0.75432857    -0.12000
C1050       C  0.47697446  0.64321349  0.75441498     0.01900
H1051       H  0.05038709  0.68601851  0.76043799     0.14900
H1052       H  0.46065590  0.59557004  0.75284035     0.14900
C1053       C  0.44712327  0.64345596  0.75361134     0.36600
C1054       C  0.06345681  0.63780363  0.76249231     0.36500
N1055       N  0.42314916  0.64344939  0.75331102    -0.43800
N1056       N  0.08721019  0.63712964  0.76504757    -0.43800
C1057       C  0.49840780  0.75076744  0.84303669    -0.00200
C1058       C  0.02227422  0.77252723  0.85763603    -0.12100
C1059       C  0.02362884  0.77394264  0.88965612     0.02000
C1060       C  0.50060301  0.75243682  0.90794817    -0.00300
C1061       C  0.47806787  0.72986478  0.89294780    -0.12000
C1062       C  0.47672336  0.72888105  0.86086500     0.01900
H1063       H  0.03984710  0.78846308  0.84426051     0.14900
H1064       H  0.46158006  0.71262816  0.90639009     0.14900
C1065       C  0.45339350  0.70463401  0.84707250     0.36600
C1066       C  0.04794375  0.79745310  0.90322873     0.36500
N1067       N  0.43466324  0.68522467  0.83603980    -0.43800
N1068       N  0.06736387  0.81646798  0.91395444    -0.43800
C1069       C  0.49886285  0.74818963  0.59355875    -0.00200
C1070       C  0.02205113  0.76779901  0.60843123    -0.12100
C1071       C  0.02275968  0.77022084  0.64021330     0.01800
C1072       C  0.49984892  0.75235923  0.65814882    -0.00300
C1073       C  0.47578619  0.73144997  0.64303801    -0.12000
C1074       C  0.47509441  0.72911938  0.61120341     0.01900
H1075       H  0.04004602  0.78318259  0.59514246     0.14900
H1076       H  0.45752049  0.71641679  0.65623443     0.14900
C1077       C  0.45007480  0.70628209  0.59768742     0.36600
C1078       C  0.04739979  0.79359609  0.65356944     0.36500
N1079       N  0.42995207  0.68787576  0.58709410    -0.43800
N1080       N  0.06716585  0.81241526  0.66410509    -0.43800
C1081       C  0.99841564  0.83289493  0.00002191    -0.00200
C1082       C  0.02224352  0.85750259  0.98855415    -0.12100
C1083       C  0.02158924  0.88643696  0.98738887     0.02000
C1084       C  0.99699102  0.89120979  0.99832648    -0.00300
C1085       C  0.46766063  0.86475671  0.50566328    -0.12000
C1086       C  0.46815184  0.83582803  0.50642730     0.01900
H1087       H  0.04102071  0.85405208  0.97947520     0.14900
H1088       H  0.44804605  0.86810879  0.51273029     0.14900
C1089       C  0.44232568  0.81163807  0.51726468     0.36600
C1090       C  0.04521799  0.91044145  0.97267125     0.36500
N1091       N  0.42158409  0.79230806  0.52592528    -0.43800
N1092       N  0.06393836  0.92954788  0.96041739    -0.43800
C1093       C  0.50611421  0.66798733  0.50377238    -0.00200
C1094       C  0.48107311  0.64266012  0.51103508    -0.12100
C1095       C  0.48181938  0.61387546  0.51077080     0.02000
C1096       C  0.50782100  0.60996707  0.50253672    -0.00300
C1097       C  0.03197578  0.63447336  0.49384778    -0.12000
C1098       C  0.03129181  0.66314446  0.49450093     0.01900
H1099       H  0.46093633  0.64529974  0.51753971     0.14900
H1100       H  0.05202230  0.63168528  0.48721894     0.14900
C1101       C  0.05778122  0.68778143  0.48612664     0.36600
C1102       C  0.45647290  0.58899365  0.52130196     0.36500
N1103       N  0.07915170  0.70740344  0.47955531    -0.43800
N1104       N  0.43514223  0.56925574  0.03134324    -0.43800
O1105       O  0.97636990  0.27965020  0.49882197    -0.74500
O1106       O  0.97152028  0.19876920  0.00146472    -0.74500
O1107       O  0.97032464  0.23547961  0.04521729    -0.74600
O1108       O  0.97769767  0.24166507  0.45715793    -0.74600
O1109       O  0.52834586  0.26233576  0.45938955    -0.74500
O1110       O  0.51899929  0.25517173  0.04697835    -0.74500
O1111       O  0.52028452  0.21789478  0.00418411    -0.74500
O1112       O  0.52606349  0.29974714  0.50150548    -0.74600
Ni1113     Ni  0.96808366  0.23725974  0.00096530     1.25400
Ni1114     Ni  0.52964161  0.26127098  0.50347387     1.25400
C1115       C  0.50065893  0.30269704  0.49987631     0.87700
C1116       C  0.49626533  0.19530776  0.00231494     0.87600
C1117       C  0.99514353  0.24528441  0.06048240     0.87700
C1118       C  0.00233787  0.25162701  0.44349054     0.87800
O1119       O  0.97645244  0.20147289  0.25290847    -0.74500
O1120       O  0.97236781  0.27933105  0.24859041    -0.74500
O1121       O  0.97412035  0.24157158  0.20682098    -0.74600
O1122       O  0.97467790  0.23921816  0.29470710    -0.74600
O1123       O  0.52518536  0.25943838  0.29622342    -0.74500
O1124       O  0.52300872  0.26096009  0.20806294    -0.74500
O1125       O  0.52181801  0.29912869  0.24971362    -0.74500
O1126       O  0.52616108  0.22102998  0.25444231    -0.74600
Ni1127     Ni  0.97268173  0.23972536  0.25070544     1.25400
Ni1128     Ni  0.52583667  0.26085193  0.25214703     1.25400
C1129       C  0.00171825  0.19836746  0.25393839     0.87700
C1130       C  0.99624838  0.30218588  0.24908852     0.87600
C1131       C  0.99865840  0.25173160  0.19299368     0.87700
C1132       C  0.99934890  0.24883727  0.31015279     0.87800
O1133       O  0.92135103  0.46822449  0.48591157    -0.80900
O1134       O  0.55931496  0.48728344  0.48921405    -0.65600
O1135       O  0.97716004  0.47696856  0.00509896    -1.12200
C1136       C  0.00709595  0.08071353  0.99924975     1.05900
O1137       O  0.58070828  0.03411716  0.00734760    -0.78800
O1138       O  0.53933132  0.03132380  0.04818387    -0.66400
Ni1139     Ni  0.94898782  0.44812480  0.48349166     1.34900
C1140       C  0.51345183  0.02414342  0.05822963     0.84700
O1141       O  0.51296813  0.44117367  0.50623121    -0.79400
O1142       O  0.97121167  0.42239324  0.48001914    -0.89700
C1143       C  0.58048537  0.50702386  0.99574064     0.84300
O1144       O  0.96294448  0.46991233  0.44583720    -0.67900
O1145       O  0.52919748  0.07779806  0.01409639    -0.87100
C1146       C  0.98895059  0.47687121  0.43619131     0.85100
C1147       C  0.49313437  0.41991336  0.49349182     1.06700
H1148       H  0.52579300  0.02909740  0.46840222     0.38500
O1149       O  0.52262946  0.02329820  0.49006060    -1.09800
O1150       O  0.99197528  0.02555729  0.04023258    -0.66500
Ni1151     Ni  0.98291774  0.01849086  0.99695297     1.26300
O1152       O  0.51082918  0.47623329  0.45318543    -0.66700
O1153       O  0.98780912  0.05900051  0.98662510    -0.79000
C1154       C  0.91931530  0.99270758  0.49869285     0.84500
O1155       O  0.94285414  0.01234036  0.00514248    -0.66100
Ni1156     Ni  0.55226182  0.05301078  0.01012427     1.27400
Ni1157     Ni  0.51923117  0.48208177  0.49677282     1.26100
H1158       H  0.97381559  0.47114257  0.02668906     0.39000
O1159       O  0.91986902  0.47186321  0.23156314    -0.80900
O1160       O  0.55587748  0.48568897  0.23851064    -0.65600
O1161       O  0.97676875  0.47710777  0.25464397    -1.12200
C1162       C  0.01223841  0.08181573  0.25555300     1.05900
O1163       O  0.58313437  0.03173842  0.26100429    -0.78800
O1164       O  0.54078564  0.02710114  0.30169920    -0.66400
Ni1165     Ni  0.94605570  0.45005440  0.23035490     1.34900
C1166       C  0.51473170  0.02047157  0.31109107     0.84700
O1167       O  0.50916396  0.43996783  0.25464916    -0.79400
O1168       O  0.96696285  0.42295366  0.22769084    -0.89700
C1169       C  0.57965462  0.50636194  0.24586849     0.84300
O1170       O  0.96133539  0.47161315  0.19303607    -0.67900
O1171       O  0.53311681  0.07643006  0.27148592    -0.87100
C1172       C  0.48694660  0.47689652  0.18401977     0.85100
C1173       C  0.48902380  0.41903299  0.24181254     1.06700
H1174       H  0.52853681  0.03127790  0.21924959     0.38500
O1175       O  0.52514829  0.02448101  0.24062463    -1.09800
O1176       O  0.99395296  0.02370627  0.29354786    -0.66500
Ni1177     Ni  0.98564097  0.01980962  0.24974378     1.26300
O1178       O  0.50827522  0.47581340  0.20240029    -0.66700
O1179       O  0.99219373  0.06111945  0.24215554    -0.79000
C1180       C  0.92207231  0.99350750  0.25012332     0.84500
O1181       O  0.94568463  0.01396396  0.25850450    -0.66100
Ni1182     Ni  0.55548383  0.05137407  0.26545774     1.27400
Ni1183     Ni  0.51602049  0.48101551  0.24602879     1.26100
H1184       H  0.97335973  0.47033303  0.27602162     0.39000
O1185       O  0.79846855  0.02292693  0.50289045    -0.74500
O1186       O  0.71937216  0.02385262  0.49577448    -0.74500
O1187       O  0.76179251  0.02767522  0.04241545    -0.74600
O1188       O  0.75961554  0.02330009  0.45552100    -0.74600
O1189       O  0.74161958  0.47184650  0.45915598    -0.74500
O1190       O  0.74276816  0.47556197  0.04539131    -0.74500
O1191       O  0.70214531  0.47466872  0.99916850    -0.74500
O1192       O  0.78168570  0.47529975  0.00385573    -0.74600
Ni1193     Ni  0.75957706  0.02519076  0.49917917     1.25400
Ni1194     Ni  0.74138810  0.47329373  0.00170013     1.25400
C1195       C  0.80241952  0.99793024  0.50572504     0.87700
C1196       C  0.69855003  0.00312237  0.99811791     0.87600
C1197       C  0.75227488  0.00343649  0.05933874     0.87700
C1198       C  0.75048539  0.99846237  0.44281696     0.87800
O1199       O  0.80136639  0.02688796  0.25234269    -0.74500
O1200       O  0.72173257  0.02680850  0.24786090    -0.74500
O1201       O  0.76224984  0.02633065  0.29420719    -0.74600
O1202       O  0.76091406  0.02741171  0.20603036    -0.74600
O1203       O  0.74026974  0.47309938  0.20804146    -0.74500
O1204       O  0.74064977  0.47339058  0.29579299    -0.74500
O1205       O  0.70042452  0.47259639  0.24908247    -0.74500
O1206       O  0.78027833  0.47396566  0.25457179    -0.74600
Ni1207     Ni  0.76219155  0.02865115  0.25002095     1.25400
Ni1208     Ni  0.73979386  0.47150062  0.25201822     1.25400
C1209       C  0.80566012  0.00206480  0.25465816     0.87700
C1210       C  0.69983162  0.00199570  0.24857864     0.87600
C1211       C  0.75346765  0.00133671  0.31006702     0.87700
C1212       C  0.75160622  0.00274844  0.19289971     0.87800
C1213       C  0.75347109  0.00065853  0.34407573    -0.00200
C1214       C  0.74584047  0.47140776  0.36050649    -0.12100
C1215       C  0.74615348  0.47003814  0.39274577     0.02000
C1216       C  0.75106562  0.99855062  0.40890262    -0.00300
C1217       C  0.77484584  0.01991143  0.39349239    -0.12000
C1218       C  0.77637724  0.02094922  0.36143280     0.01900
H1219       H  0.74280567  0.45130071  0.34920260     0.14900
H1220       H  0.79262587  0.03550045  0.40662280     0.14900
C1221       C  0.80243010  0.04196410  0.34716369     0.36600
C1222       C  0.74319461  0.44186101  0.40910627     0.36500
N1223       N  0.82343512  0.05861256  0.33577751    -0.43800
N1224       N  0.74093863  0.41927192  0.42212697    -0.43800
C1225       C  0.75216176  0.00427849  0.09344424    -0.00200
C1226       C  0.74285777  0.47307976  0.10952811    -0.12100
C1227       C  0.74173586  0.47141643  0.14160666     0.02000
C1228       C  0.75070351  0.00298887  0.15865754    -0.00300
C1229       C  0.76854767  0.02853075  0.14177145    -0.12000
C1230       C  0.76938976  0.02948054  0.10960920     0.01900
H1231       H  0.73636594  0.45253032  0.09799227     0.14900
H1232       H  0.78235519  0.04780775  0.15377353     0.14900
C1233       C  0.78871371  0.05648756  0.09421410     0.36600
C1234       C  0.73229781  0.44212842  0.15722880     0.36500
N1235       N  0.80420108  0.07825678  0.08208756    -0.43800
N1236       N  0.72475899  0.41855580  0.16951886    -0.43800
C1237       C  0.60846169  0.50287825  0.24258461    -0.00200
C1238       C  0.61185441  0.47566322  0.25190156    -0.12100
C1239       C  0.63975921  0.47272092  0.25247082     0.02000
C1240       C  0.66907725  0.00205459  0.24694478    -0.00300
C1241       C  0.66337838  0.02623351  0.23117281    -0.12000
C1242       C  0.63504904  0.02801544  0.23018544     0.01900
H1243       H  0.59286244  0.45695501  0.25990404     0.14900
H1244       H  0.68108480  0.04378618  0.21949393     0.14900
C1245       C  0.62993632  0.05266267  0.21269134     0.36600
C1246       C  0.64161437  0.44416247  0.26279629     0.36500
N1247       N  0.62556335  0.07217995  0.19850158    -0.43800
N1248       N  0.64294453  0.42118537  0.27095639    -0.43800
C1249       C  0.83631340  0.00119005  0.25623641    -0.00200
C1250       C  0.83655025  0.47089193  0.25624974    -0.12100
C1251       C  0.86445713  0.46874694  0.25497061     0.02000
C1252       C  0.89288339  0.99591510  0.25476760    -0.00300
C1253       C  0.89017413  0.02403835  0.25285858    -0.12000
C1254       C  0.86233472  0.02694454  0.25364328     0.01900
H1255       H  0.81745691  0.45051287  0.25869948     0.14900
H1256       H  0.90978075  0.04384883  0.24977098     0.14900
C1257       C  0.86149025  0.05666173  0.25130716     0.36600
C1258       C  0.86636618  0.43940405  0.25854375     0.36500
N1259       N  0.86106616  0.08058271  0.24953825    -0.43800
N1260       N  0.86780748  0.41588089  0.26151744    -0.43800
C1261       C  0.66797196  0.00398803  0.99666356    -0.00200
C1262       C  0.66282257  0.02735002  0.48683173    -0.12100
C1263       C  0.63504497  0.03018625  0.48690491     0.02000
C1264       C  0.60967286  0.50412327  0.99252621    -0.00300
C1265       C  0.61348503  0.47715909  0.00207364    -0.12000
C1266       C  0.64163028  0.47470137  0.00323588     0.01900
H1267       H  0.68176863  0.04676779  0.48018101     0.14900
H1268       H  0.59463177  0.45830536  0.01009578     0.14900
C1269       C  0.64391441  0.44670286  0.01512247     0.36600
C1270       C  0.63307733  0.05897670  0.47786485     0.36500
N1271       N  0.64552213  0.42420227  0.02478588    -0.43800
N1272       N  0.63166820  0.08211700  0.47073661    -0.43800
C1273       C  0.83303623  0.99749120  0.50677376    -0.00200
C1274       C  0.85523031  0.02116120  0.49164355    -0.12100
C1275       C  0.88374061  0.02044251  0.48926685     0.02000
C1276       C  0.89051672  0.99582254  0.50246440    -0.00300
C1277       C  0.86952966  0.47429229  0.01515589    -0.12000
C1278       C  0.84135062  0.47550275  0.01786237     0.01900
H1279       H  0.84998972  0.03975667  0.48050460     0.14900
H1280       H  0.87469320  0.45551082  0.02595035     0.14900
C1281       C  0.82049638  0.45200026  0.03631532     0.36600
C1282       C  0.90493086  0.04416639  0.47137791     0.36500
N1283       N  0.80380844  0.43323774  0.05118412    -0.43800
N1284       N  0.92180240  0.06314099  0.45689652    -0.43800
C1285       C  0.49480048  0.48821303  0.40288109    -0.00200
C1286       C  0.01695163  0.48171498  0.38913663    -0.12100
C1287       C  0.02341264  0.49162285  0.35846731     0.02000
C1288       C  0.50829518  0.00965845  0.34366040    -0.00300
C1289       C  0.48165384  0.00925356  0.35522057    -0.12000
C1290       C  0.47390525  0.99878000  0.38544170     0.01900
H1291       H  0.02946371  0.46945459  0.40184937     0.14900
H1292       H  0.46674246  0.01743802  0.34067124     0.14900
C1293       C  0.44659502  0.00009829  0.39566119     0.36600
C1294       C  0.04623419  0.48440865  0.34488269     0.36500
N1295       N  0.42471383  0.00118169  0.40378337    -0.43800
N1296       N  0.06453620  0.47860518  0.33406748    -0.43800
C1297       C  0.49310605  0.48566344  0.15104965    -0.00200
C1298       C  0.02324207  0.50196565  0.14291053    -0.12100
C1299       C  0.03050851  0.51276536  0.11264076     0.02000
C1300       C  0.50833773  0.01506684  0.09144339    -0.00300
C1301       C  0.47893080  0.00116216  0.10051348    -0.12000
C1302       C  0.47233843  0.99081471  0.13098815     0.01900
H1303       H  0.04098875  0.50566732  0.16042988     0.14900
H1304       H  0.46071356  0.99799331  0.08361942     0.14900
C1305       C  0.44138581  0.97717935  0.13797315     0.36600
C1306       C  0.06142723  0.52839187  0.10651424     0.36500
N1307       N  0.41652257  0.96651373  0.14337457    -0.43800
N1308       N  0.08622366  0.54088366  0.10168614    -0.43800
C1309       C  0.49422649  0.33181577  0.24733735    -0.00200
C1310       C  0.51822156  0.35647292  0.23638757    -0.12100
C1311       C  0.51702893  0.38514979  0.23426520     0.02000
C1312       C  0.49153813  0.38949470  0.24336419    -0.00300
C1313       C  0.96820686  0.36587600  0.25499242    -0.12000
C1314       C  0.96926720  0.33719732  0.25764046     0.01900
H1315       H  0.53775986  0.35331164  0.22886020     0.14900
H1316       H  0.94879378  0.36945328  0.26231524     0.14900
C1317       C  0.94462687  0.31361416  0.27145322     0.36600
C1318       C  0.54139529  0.40938000  0.22091914     0.36500
N1319       N  0.92492461  0.29481709  0.28269758    -0.43800
N1320       N  0.56079127  0.42860054  0.20975987    -0.43800
C1321       C  0.00355805  0.16812363  0.25434403    -0.00200
C1322       C  0.53175299  0.16484720  0.25984522    -0.12100
C1323       C  0.53492281  0.13712817  0.25999093     0.02000
C1324       C  0.00988039  0.11175301  0.25474991    -0.00300
C1325       C  0.98183938  0.11433728  0.25024847    -0.12000
C1326       C  0.97839232  0.14197794  0.25018853     0.01900
H1327       H  0.55139843  0.18433538  0.26342417     0.14900
H1328       H  0.96234341  0.09455720  0.24724012     0.14900
C1329       C  0.94864711  0.14240433  0.24586109     0.36600
C1330       C  0.56455368  0.13630673  0.26414365     0.36500
N1331       N  0.92473544  0.14255924  0.24250556    -0.43800
N1332       N  0.58830165  0.13569975  0.26750858    -0.43800
C1333       C  0.99963133  0.24888484  0.34432153    -0.00200
C1334       C  0.52667313  0.26895865  0.35982198    -0.12100
C1335       C  0.52803528  0.27068334  0.39185217     0.02000
C1336       C  0.00206212  0.25155011  0.40933685    -0.00300
C1337       C  0.97633154  0.23337858  0.39386841    -0.12000
C1338       C  0.97490347  0.23178494  0.36186966     0.01900
H1339       H  0.54526728  0.28330618  0.34661051     0.14900
H1340       H  0.95723364  0.21986434  0.40687152     0.14900
C1341       C  0.94798984  0.21166934  0.34806655     0.36600
C1342       C  0.55415624  0.29207034  0.40554754     0.36500
N1343       N  0.92641712  0.19548630  0.33709281    -0.43800
N1344       N  0.57510070  0.30931142  0.41637692    -0.43800
C1345       C  0.99580503  0.24606912  0.09449184    -0.00200
C1346       C  0.51709306  0.26925833  0.10877684    -0.12100
C1347       C  0.51831849  0.27167422  0.14064494     0.01800
C1348       C  0.99810604  0.25087658  0.15901902    -0.00300
C1349       C  0.97484036  0.22837776  0.14476970    -0.12000
C1350       C  0.97354223  0.22573656  0.11294433     0.01900
H1351       H  0.53336001  0.28616157  0.09479655     0.14900
H1352       H  0.95781100  0.21230815  0.15865699     0.14900
C1353       C  0.94976725  0.20118580  0.10020960     0.36600
C1354       C  0.54076528  0.29725920  0.15338667     0.36500
N1355       N  0.93072562  0.18137916  0.09018199    -0.43800
N1356       N  0.55864538  0.31785862  0.16353855    -0.43800
C1357       C  0.49879447  0.33277341  0.49927515    -0.00200
C1358       C  0.52303738  0.35760517  0.48916092    -0.12100
C1359       C  0.52182568  0.38628315  0.48733612     0.02000
C1360       C  0.49595028  0.39043025  0.49557449    -0.00300
C1361       C  0.96731957  0.36507664  0.00947544    -0.12000
C1362       C  0.96720375  0.33595242  0.01114704     0.01900
H1363       H  0.54280151  0.35459324  0.48206878     0.14900
H1364       H  0.94854584  0.36929834  0.01758041     0.14900
C1365       C  0.94226474  0.31271086  0.02489188     0.36600
C1366       C  0.54672175  0.41080900  0.47534235     0.36500
N1367       N  0.92227152  0.29419440  0.03601834    -0.43800
N1368       N  0.56660077  0.43034970  0.46541185    -0.43800
C1369       C  0.99882867  0.16617792  0.99963441    -0.00200
C1370       C  0.97638757  0.14075310  0.01183086    -0.12100
C1371       C  0.97833703  0.11247355  0.01143973     0.02000
C1372       C  0.00276686  0.10938119  0.99819773    -0.00300
C1373       C  0.52388127  0.13363102  0.98624720    -0.12000
C1374       C  0.52218014  0.16189190  0.98655882     0.01900
H1375       H  0.95784314  0.14307387  0.02263324     0.14900
H1376       H  0.54264488  0.13109975  0.97606084     0.14900
C1377       C  0.54526713  0.18660683  0.97194570     0.36600
C1378       C  0.95632011  0.08730186  0.02672995     0.36500
N1379       N  0.56377846  0.20636612  0.96022337    -0.43800
N1380       N  0.93704200  0.07037140  0.53758508    -0.43800
O1381       O  0.96826170  0.27713760  0.00038366    -0.74500
O1382       O  0.97923902  0.20131924  0.50338879    -0.74500
O1383       O  0.97804262  0.23959633  0.54500209    -0.74600
O1384       O  0.96947621  0.24059697  0.95679478    -0.74600
O1385       O  0.51885165  0.25907536  0.95914789    -0.74500
O1386       O  0.52751032  0.25895139  0.54740554    -0.74500
O1387       O  0.52950432  0.22134891  0.50512502    -0.74500
O1388       O  0.51760979  0.29614759  0.00155647    -0.74600
Ni1389     Ni  0.97610095  0.23987092  0.50104412     1.25400
Ni1390     Ni  0.52064388  0.25766730  0.00309360     1.25400
C1391       C  0.49244615  0.29947445  0.00052549     0.87700
C1392       C  0.50535845  0.19872669  0.50420735     0.87600
C1393       C  0.00262705  0.24922855  0.56060955     0.87700
C1394       C  0.99416933  0.25092355  0.94316149     0.87800
O1395       O  0.97525064  0.20385592  0.75136528    -0.74500
O1396       O  0.97405466  0.28272330  0.74693566    -0.74500
O1397       O  0.97733721  0.24554453  0.70556791    -0.74600
O1398       O  0.97212824  0.24134612  0.79292081    -0.74600
O1399       O  0.52171039  0.26030831  0.79778314    -0.74500
O1400       O  0.52622665  0.26433469  0.71001310    -0.74500
O1401       O  0.52326474  0.30195559  0.75165352    -0.74500
O1402       O  0.52462591  0.22265079  0.75599709    -0.74600
Ni1403     Ni  0.97300305  0.24274085  0.74902411     1.25400
Ni1404     Ni  0.52574904  0.26297083  0.75406610     1.25400
C1405       C  0.00000073  0.19964693  0.75388286     0.87700
C1406       C  0.99824721  0.30500416  0.74920169     0.87600
C1407       C  0.00268327  0.25507414  0.69329640     0.87700
C1408       C  0.99589717  0.25011564  0.80989901     0.87800
O1409       O  0.91964566  0.47092414  0.98225928    -0.80900
O1410       O  0.55678730  0.48544039  0.98992163    -0.65600
O1411       O  0.97986431  0.47688742  0.50604398    -1.12200
C1412       C  0.00853435  0.07989430  0.50439048     1.05900
O1413       O  0.58069442  0.03141531  0.51016299    -0.78800
O1414       O  0.53898973  0.02833235  0.55055660    -0.66400
Ni1415     Ni  0.94605484  0.44906634  0.98192870     1.34900
C1416       C  0.51307801  0.02200485  0.56015529     0.84700
O1417       O  0.50967634  0.43943176  0.00671834    -0.79400
O1418       O  0.96688532  0.42181779  0.98061462    -0.89700
C1419       C  0.58291499  0.50816833  0.49676273     0.84300
O1420       O  0.96144901  0.46936550  0.94399799    -0.67900
O1421       O  0.53137120  0.07702540  0.51850272    -0.87100
C1422       C  0.98764809  0.47553328  0.93521703     0.85100
C1423       C  0.48939843  0.41829853  0.99416083     1.06700
H1424       H  0.52444450  0.02896982  0.96600278     0.38500
O1425       O  0.52185413  0.02349764  0.98777444    -1.09800
O1426       O  0.99118491  0.02340344  0.54276918    -0.66500
Ni1427     Ni  0.98265291  0.01807883  0.49926277     1.26300
O1428       O  0.50874142  0.47416281  0.95372590    -0.66700
O1429       O  0.98901872  0.05921945  0.49054057    -0.79000
C1430       C  0.91950753  0.99138847  0.99721553     0.84500
O1431       O  0.94288906  0.01287193  0.50744422    -0.66100
Ni1432     Ni  0.55329850  0.05134336  0.51360349     1.27400
Ni1433     Ni  0.51657593  0.48049765  0.99703348     1.26100
H1434       H  0.97698246  0.47135200  0.52774418     0.39000
O1435       O  0.92252543  0.47407369  0.73218810    -0.80900
O1436       O  0.56032056  0.49173028  0.74071714    -0.65600
O1437       O  0.97974668  0.47996742  0.75505129    -1.12200
C1438       C  0.00610746  0.08118826  0.75469414     1.05900
O1439       O  0.57890248  0.03449626  0.75763994    -0.78800
O1440       O  0.53728746  0.02906120  0.79973336    -0.66400
Ni1441     Ni  0.94957359  0.45324143  0.73000013     1.34900
C1442       C  0.51142821  0.02219061  0.80983179     0.84700
O1443       O  0.51358795  0.44481677  0.75492220    -0.79400
O1444       O  0.97121446  0.42694400  0.72653805    -0.89700
C1445       C  0.58372086  0.51252136  0.74881947     0.84300
O1446       O  0.96542952  0.47635147  0.69351793    -0.67900
O1447       O  0.52791113  0.07756577  0.76991971    -0.87100
C1448       C  0.49251708  0.48433435  0.68521419     0.85100
C1449       C  0.49375350  0.42412075  0.74137876     1.06700
H1450       H  0.52291475  0.03090746  0.71806971     0.38500
O1451       O  0.52003210  0.02514761  0.73967874    -1.09800
O1452       O  0.98957439  0.02389335  0.79307962    -0.66500
Ni1453     Ni  0.97994378  0.01924232  0.74949182     1.26300
O1454       O  0.51343782  0.48196729  0.70342370    -0.66700
O1455       O  0.98621215  0.06059097  0.74101173    -0.79000
C1456       C  0.91670668  0.99297329  0.74986900     0.84500
O1457       O  0.94016397  0.01324509  0.75894441    -0.66100
Ni1458     Ni  0.55073779  0.05323157  0.76308617     1.27400
Ni1459     Ni  0.52006072  0.48596146  0.74738168     1.26100
H1460       H  0.97600734  0.47295808  0.77628762     0.39000
O1461       O  0.79978154  0.02477828  0.00045369    -0.74500
O1462       O  0.72099621  0.02752553  0.99660728    -0.74500
O1463       O  0.75828289  0.02368272  0.54304489    -0.74600
O1464       O  0.75917066  0.02544713  0.95483290    -0.74600
O1465       O  0.74144892  0.47465334  0.95775451    -0.74500
O1466       O  0.74398930  0.47401528  0.54683480    -0.74500
O1467       O  0.70313522  0.47326375  0.50106690    -0.74500
O1468       O  0.78234902  0.47253094  0.50512015    -0.74600
Ni1469     Ni  0.76111828  0.02813023  0.99843939     1.25400
Ni1470     Ni  0.74214460  0.47114534  0.50320267     1.25400
C1471       C  0.80301508  0.99938161  0.00338099     0.87700
C1472       C  0.69715308  0.99930227  0.49689494     0.87600
C1473       C  0.74862845  0.99909315  0.55940816     0.87700
C1474       C  0.74984295  0.00041421  0.94252607     0.87800
O1475       O  0.79524764  0.02440455  0.75134030    -0.74500
O1476       O  0.71604248  0.02455137  0.74589727    -0.74500
O1477       O  0.75621450  0.02540830  0.79247776    -0.74600
O1478       O  0.75497277  0.02333021  0.70481130    -0.74600
O1479       O  0.74189558  0.47575649  0.70838545    -0.74500
O1480       O  0.74422303  0.47759624  0.79570017    -0.74500
O1481       O  0.70337833  0.47701556  0.75005390    -0.74500
O1482       O  0.78292470  0.47697330  0.75405624    -0.74600
Ni1483     Ni  0.75622097  0.02616439  0.74847242     1.25400
Ni1484     Ni  0.74248567  0.47506565  0.75220482     1.25400
C1485       C  0.79969208  0.99969222  0.75433007     0.87700
C1486       C  0.69401739  0.99993201  0.74761475     0.87600
C1487       C  0.74776854  0.00098905  0.80929941     0.87700
C1488       C  0.74597245  0.99821523  0.69258659     0.87800
C1489       C  0.74854827  0.00150869  0.84334915    -0.00200
C1490       C  0.74837267  0.47543663  0.85973761    -0.12100
C1491       C  0.74719699  0.47359771  0.89179751     0.02000
C1492       C  0.74965111  0.00016141  0.90851469    -0.00300
C1493       C  0.74637924  0.02438952  0.89037168    -0.12000
C1494       C  0.74592347  0.02535316  0.85818434     0.01900
H1495       H  0.74530649  0.45535298  0.84837046     0.14900
H1496       H  0.74382234  0.04261085  0.90138036     0.14900
C1497       C  0.74192690  0.05077113  0.84117038     0.36600
C1498       C  0.74222378  0.44485334  0.90781135     0.36500
N1499       N  0.73880884  0.07122437  0.82763730    -0.43800
N1500       N  0.73819406  0.42175023  0.92048117    -0.43800
C1501       C  0.74734344  0.99924346  0.59337956    -0.00200
C1502       C  0.73468137  0.47468740  0.60975407    -0.12100
C1503       C  0.73298583  0.47423270  0.64167544     0.02000
C1504       C  0.74590993  0.99762099  0.65851671    -0.00300
C1505       C  0.74703280  0.02339172  0.64018173    -0.12000
C1506       C  0.74781109  0.02448958  0.60806909     0.01900
H1507       H  0.72090685  0.45533261  0.59784199     0.14900
H1508       H  0.74726172  0.04292149  0.65095643     0.14900
C1509       C  0.74865160  0.05178799  0.59102562     0.36600
C1510       C  0.71247897  0.44787910  0.65697415     0.36500
N1511       N  0.74942751  0.07372236  0.57744313    -0.43800
N1512       N  0.69598242  0.42669076  0.66903804    -0.43800
C1513       C  0.61271091  0.50926219  0.74616556    -0.00200
C1514       C  0.61590699  0.48198633  0.75563834    -0.12100
C1515       C  0.64361993  0.47870028  0.75597418     0.02000
C1516       C  0.66352518  0.00078030  0.74585632    -0.00300
C1517       C  0.65903695  0.02610459  0.73135851    -0.12000
C1518       C  0.63134160  0.02925276  0.73078876     0.01900
H1519       H  0.59688752  0.46348867  0.76396925     0.14900
H1520       H  0.67732455  0.04372148  0.72055508     0.14900
C1521       C  0.62813351  0.05568559  0.71529672     0.36600
C1522       C  0.64553433  0.45052444  0.76777518     0.36500
N1523       N  0.62572315  0.07689522  0.70278918    -0.43800
N1524       N  0.64705103  0.42796186  0.77734715    -0.43800
C1525       C  0.83049433  0.99931374  0.75581261    -0.00200
C1526       C  0.83976416  0.47408393  0.75920324    -0.12100
C1527       C  0.86773273  0.47189907  0.75822591     0.02000
C1528       C  0.88744561  0.99510998  0.75436598    -0.00300
C1529       C  0.88410657  0.02291549  0.75067560    -0.12000
C1530       C  0.85605874  0.02530399  0.75136132     0.01900
H1531       H  0.82093452  0.45399546  0.76426028     0.14900
H1532       H  0.90335298  0.04279133  0.74621095     0.14900
C1533       C  0.85450332  0.05472046  0.74678127     0.36600
C1534       C  0.87027218  0.44305572  0.76516622     0.36500
N1535       N  0.85342432  0.07836895  0.74316797    -0.43800
N1536       N  0.87221887  0.41993044  0.77084058    -0.43800
C1537       C  0.66656900  0.00014207  0.49556969    -0.00200
C1538       C  0.66381849  0.03053631  0.98569051    -0.12100
C1539       C  0.63573514  0.03291489  0.98442713     0.02000
C1540       C  0.61195278  0.50469251  0.49472367    -0.00300
C1541       C  0.61573434  0.47838531  0.50707706    -0.12000
C1542       C  0.64373140  0.47553071  0.50858459     0.01900
H1543       H  0.68259209  0.04962793  0.97795610     0.14900
H1544       H  0.59701887  0.46052142  0.51690759     0.14900
C1545       C  0.64643023  0.44885718  0.52400828     0.36600
C1546       C  0.63301660  0.06067164  0.97224786     0.36500
N1547       N  0.64851816  0.42754584  0.53661779    -0.43800
N1548       N  0.63103116  0.08296074  0.96238919    -0.43800
C1549       C  0.83317928  0.99758418  0.00347462    -0.00200
C1550       C  0.85622264  0.02140903  0.98968225    -0.12100
C1551       C  0.88448878  0.01992761  0.98743818     0.02000
C1552       C  0.89034875  0.99445407  0.99966090    -0.00300
C1553       C  0.87081834  0.47192908  0.51651229    -0.12000
C1554       C  0.84246006  0.47283937  0.51903902     0.01900
H1555       H  0.85191962  0.04089709  0.97964187     0.14900
H1556       H  0.87617990  0.45335902  0.52756885     0.14900
C1557       C  0.82192659  0.44971005  0.53813645     0.36600
C1558       C  0.90640161  0.04386599  0.97053375     0.36500
N1559       N  0.80562991  0.43132132  0.55371451    -0.43800
N1560       N  0.92383307  0.06293182  0.95671520    -0.43800
C1561       C  0.49438498  0.48570076  0.90291038    -0.00200
C1562       C  0.02309807  0.50459465  0.89589663    -0.12100
C1563       C  0.03028404  0.51662700  0.86599407     0.02000
C1564       C  0.50588275  0.01088757  0.84237162    -0.00300
C1565       C  0.48189188  0.01398460  0.85638531    -0.12000
C1566       C  0.47512770  0.00315648  0.88676707     0.01900
H1567       H  0.03990164  0.51136727  0.91429052     0.14900
H1568       H  0.46849327  0.02530725  0.84368611     0.14900
C1569       C  0.45104669  0.00854735  0.89999881     0.36600
C1570       C  0.05966714  0.53817317  0.86125170     0.36500
N1571       N  0.43176527  0.01295238  0.91050140    -0.43800
N1572       N  0.08316770  0.55554852  0.85754757    -0.43800
C1573       C  0.49903604  0.49470828  0.65288691    -0.00200
C1574       C  0.01963977  0.48634318  0.63804364    -0.12100
C1575       C  0.02603771  0.49535253  0.60715590     0.02000
C1576       C  0.50686779  0.01159395  0.59288384    -0.00300
C1577       C  0.47742187  0.00268372  0.60204180    -0.12000
C1578       C  0.46973782  0.99206196  0.63221626     0.01900
H1579       H  0.03093751  0.47293076  0.65081678     0.14900
H1580       H  0.45998291  0.00371793  0.58547159     0.14900
C1581       C  0.43880575  0.98286766  0.63915849     0.36600
C1582       C  0.04683098  0.48546733  0.59310796     0.36500
N1583       N  0.41398616  0.97547162  0.64457104    -0.43800
N1584       N  0.06336188  0.47748961  0.58171470    -0.43800
C1585       C  0.49715278  0.33610741  0.74786845    -0.00200
C1586       C  0.52183715  0.36046190  0.73766222    -0.12100
C1587       C  0.52127761  0.38942401  0.73530379     0.02000
C1588       C  0.49573508  0.39431992  0.74330821    -0.00300
C1589       C  0.97047870  0.36921991  0.75276660    -0.12000
C1590       C  0.97111138  0.34039438  0.75548017     0.01900
H1591       H  0.54138088  0.35683414  0.73085689     0.14900
H1592       H  0.95050318  0.37284627  0.75822075     0.14900
C1593       C  0.94501618  0.31670477  0.76657628     0.36600
C1594       C  0.54636680  0.41348829  0.72292416     0.36500
N1595       N  0.92411964  0.29777951  0.77554378    -0.43800
N1596       N  0.56625847  0.43278414  0.71264893    -0.43800
C1597       C  0.00060199  0.16887524  0.75394711    -0.00200
C1598       C  0.52875144  0.16629202  0.75489358    -0.12100
C1599       C  0.53108841  0.13826960  0.75434807     0.02000
C1600       C  0.00457232  0.11148513  0.75362823    -0.00300
C1601       C  0.97690014  0.11500006  0.75070718    -0.12000
C1602       C  0.97461929  0.14318062  0.75104206     0.01900
H1603       H  0.54894924  0.18563565  0.75602938     0.14900
H1604       H  0.95686453  0.09555637  0.74879123     0.14900
C1605       C  0.94519987  0.14462373  0.74865965     0.36600
C1606       C  0.56045780  0.13681556  0.75437665     0.36500
N1607       N  0.92157968  0.14567081  0.74682642    -0.43800
N1608       N  0.58395218  0.13560817  0.75435698    -0.43800
C1609       C  0.99430982  0.25037620  0.84387966    -0.00200
C1610       C  0.52017609  0.26789520  0.86074212    -0.12100
C1611       C  0.52033286  0.26888909  0.89270109     0.02000
C1612       C  0.99443838  0.25217282  0.90889723    -0.00300
C1613       C  0.96831956  0.23672823  0.89211138    -0.12000
C1614       C  0.96794667  0.23579969  0.86001936     0.01900
H1615       H  0.54010200  0.28095832  0.84874910     0.14900
H1616       H  0.94807871  0.22488283  0.90410760     0.14900
C1617       C  0.94021307  0.21934574  0.84460585     0.36600
C1618       C  0.54704184  0.28812308  0.90768784     0.36500
N1619       N  0.91795179  0.20626886  0.83225342    -0.43800
N1620       N  0.56842776  0.30360642  0.91964364    -0.43800
C1621       C  0.00257109  0.25004227  0.59467112    -0.00200
C1622       C  0.52816017  0.26768070  0.61064379    -0.12100
C1623       C  0.52881428  0.27018382  0.64248913     0.01800
C1624       C  0.00369687  0.25454351  0.65932552    -0.00300
C1625       C  0.97787916  0.23711149  0.64346740    -0.12000
C1626       C  0.97704807  0.23464092  0.61174482     0.01900
H1627       H  0.54787453  0.28014605  0.59805213     0.14900
H1628       H  0.95806635  0.22480042  0.65597836     0.14900
C1629       C  0.94965578  0.21548951  0.59784506     0.36600
C1630       C  0.55588678  0.28953620  0.65675961     0.36500
N1631       N  0.92759281  0.20007949  0.58697258    -0.43800
N1632       N  0.57766811  0.30510870  0.66798755    -0.43800
C1633       C  0.49153195  0.32991730  0.99969711    -0.00200
C1634       C  0.51599765  0.35403761  0.98858454    -0.12100
C1635       C  0.51598510  0.38314853  0.98688535     0.02000
C1636       C  0.49123969  0.38846339  0.99654091    -0.00300
C1637       C  0.97312683  0.36584738  0.50875824    -0.12000
C1638       C  0.97410266  0.33717569  0.51039898     0.01900
H1639       H  0.53495606  0.35012174  0.98056157     0.14900
H1640       H  0.95393772  0.36929592  0.51687110     0.14900
C1641       C  0.94969885  0.31333407  0.52426814     0.36600
C1642       C  0.54067772  0.40689654  0.97338919     0.36500
N1643       N  0.93019076  0.29424909  0.53545216    -0.43800
N1644       N  0.56025392  0.42590389  0.96222532    -0.43800
C1645       C  0.00558102  0.16777967  0.50397547    -0.00200
C1646       C  0.98141599  0.14313940  0.51472558    -0.12100
C1647       C  0.98151286  0.11412224  0.51459711     0.02000
C1648       C  0.00616251  0.10948511  0.50362803    -0.00300
C1649       C  0.52915134  0.13432869  0.48875961    -0.12000
C1650       C  0.52890180  0.16321765  0.48859804     0.01900
H1651       H  0.96255662  0.14654654  0.52366732     0.14900
H1652       H  0.54663797  0.13043743  0.47747484     0.14900
C1653       C  0.55101610  0.18661731  0.47132344     0.36600
C1654       C  0.95683065  0.08974562  0.52723408     0.36500
N1655       N  0.56859544  0.20520705  0.45716778    -0.43800
N1656       N  0.93897183  0.06707325  0.03924296    -0.43800
O1657       O  0.97142097  0.77704324  0.49795102    -0.74500
O1658       O  0.97850385  0.70131966  0.00030613    -0.74500
O1659       O  0.97661337  0.73813175  0.04312759    -0.74600
O1660       O  0.97493931  0.74027113  0.45559440    -0.74600
O1661       O  0.52512068  0.76137249  0.45838466    -0.74500
O1662       O  0.52570990  0.75691025  0.04567516    -0.74500
O1663       O  0.52784861  0.72025690  0.00275118    -0.74500
O1664       O  0.52147987  0.79862019  0.49995146    -0.74600
Ni1665     Ni  0.97508893  0.73986654  0.99916555     1.25400
Ni1666     Ni  0.52619932  0.76065553  0.50239740     1.25400
C1667       C  0.49584343  0.80103694  0.49826022     0.87700
C1668       C  0.50397416  0.69738457  0.00200732     0.87600
C1669       C  0.00112993  0.74735749  0.05884298     0.87700
C1670       C  0.99980367  0.75109506  0.44231080     0.87800
O1671       O  0.97641679  0.70197053  0.25246199    -0.74500
O1672       O  0.97399668  0.78045224  0.24476583    -0.74500
O1673       O  0.97621453  0.74150250  0.20476431    -0.74600
O1674       O  0.97454638  0.74115962  0.29249837    -0.74600
O1675       O  0.52463672  0.75909101  0.29562809    -0.74500
O1676       O  0.52608842  0.76065038  0.20779671    -0.74500
O1677       O  0.52363325  0.79921687  0.24850874    -0.74500
O1678       O  0.52671869  0.72035456  0.25479487    -0.74600
Ni1679     Ni  0.97358857  0.74062095  0.24852411     1.25400
Ni1680     Ni  0.52706100  0.76052191  0.25179680     1.25400
C1681       C  0.00135070  0.69815261  0.25492864     0.87700
C1682       C  0.99798209  0.80314562  0.24528722     0.87600
C1683       C  0.00117714  0.75113501  0.19168357     0.87700
C1684       C  0.99887689  0.75086063  0.30853793     0.87800
O1685       O  0.91906734  0.96938759  0.48701189    -0.80900
O1686       O  0.55719069  0.98731934  0.49077967    -0.65600
O1687       O  0.97898266  0.97770164  0.00705994    -1.12200
C1688       C  0.00862689  0.57989386  0.00199454     1.05900
O1689       O  0.58056415  0.53121938  0.00512978    -0.78800
O1690       O  0.53903468  0.52529045  0.04708715    -0.66400
Ni1691     Ni  0.94628600  0.94881730  0.48443637     1.34900
C1692       C  0.51324249  0.51869040  0.05718209     0.84700
O1693       O  0.51048258  0.94052724  0.50754424    -0.79400
O1694       O  0.96769179  0.92238685  0.48079194    -0.89700
C1695       C  0.58148115  0.01080338  0.99655351     0.84300
O1696       O  0.96108741  0.97105314  0.44708277    -0.67900
O1697       O  0.53007244  0.57447434  0.01797446    -0.87100
C1698       C  0.98728144  0.97811202  0.43784102     0.85100
C1699       C  0.49001299  0.91937698  0.49512669     1.06700
H1700       H  0.52710197  0.52899627  0.46594145     0.38500
O1701       O  0.52427930  0.52333715  0.48765226    -1.09800
O1702       O  0.99215450  0.52332642  0.03999288    -0.66500
Ni1703     Ni  0.98277660  0.51819889  0.99652448     1.26300
O1704       O  0.50847260  0.97636392  0.45551402    -0.66700
O1705       O  0.98916896  0.55939579  0.98787603    -0.79000
C1706       C  0.92143040  0.49177476  0.49698480     0.84500
O1707       O  0.94328238  0.51290417  0.00552288    -0.66100
Ni1708     Ni  0.55260861  0.54992025  0.01081134     1.27400
Ni1709     Ni  0.51713729  0.98190023  0.49888296     1.26100
H1710       H  0.97639447  0.97255124  0.02885872     0.39000
O1711       O  0.92219608  0.97096054  0.23716822    -0.80900
O1712       O  0.55968156  0.98878645  0.23927985    -0.65600
O1713       O  0.98034809  0.97836821  0.25656318    -1.12200
C1714       C  0.00889530  0.58016524  0.25601035     1.05900
O1715       O  0.58007365  0.53014545  0.25659003    -0.78800
O1716       O  0.53845204  0.52463841  0.29819191    -0.66400
Ni1717     Ni  0.94984925  0.95166915  0.23169035     1.34900
C1718       C  0.51265218  0.51831983  0.30814633     0.84700
O1719       O  0.51333898  0.94171874  0.25455695    -0.79400
O1720       O  0.97203146  0.92666752  0.22465161    -0.89700
C1721       C  0.58309938  0.00883899  0.24860251     0.84300
O1722       O  0.96422197  0.97674792  0.19585134    -0.67900
O1723       O  0.53047512  0.57436094  0.26963036    -0.87100
C1724       C  0.49005143  0.98249497  0.18619045     0.85100
C1725       C  0.49368637  0.92138362  0.24039747     1.06700
H1726       H  0.52490429  0.52865153  0.21622758     0.38500
O1727       O  0.52177107  0.52251541  0.23778504    -1.09800
O1728       O  0.99124361  0.52166816  0.29207734    -0.66500
Ni1729     Ni  0.98231448  0.51852372  0.24822635     1.26300
O1730       O  0.51152290  0.97972356  0.20341459    -0.66700
O1731       O  0.98905268  0.56013669  0.24153293    -0.79000
C1732       C  0.91919354  0.49298910  0.24664379     0.84500
O1733       O  0.94244411  0.51235268  0.25745290    -0.66100
Ni1734     Ni  0.55256581  0.54948588  0.26218399     1.27400
Ni1735     Ni  0.51978479  0.98304967  0.24743896     1.26100
H1736       H  0.97716622  0.97159622  0.27797437     0.39000
O1737       O  0.80047483  0.52205330  0.50041775    -0.74500
O1738       O  0.72131197  0.52274499  0.49642371    -0.74500
O1739       O  0.76021123  0.52499729  0.04146559    -0.74600
O1740       O  0.75971131  0.52129640  0.45466877    -0.74600
O1741       O  0.74111431  0.97372696  0.45905091    -0.74500
O1742       O  0.74236041  0.97826700  0.04710925    -0.74500
O1743       O  0.70226733  0.97807432  0.00074947    -0.74500
O1744       O  0.78038440  0.97536529  0.00546621    -0.74600
Ni1745     Ni  0.76151483  0.52414461  0.49825766     1.25400
Ni1746     Ni  0.74074751  0.97517584  0.00332738     1.25400
C1747       C  0.80447822  0.49709112  0.50344379     0.87700
C1748       C  0.69761650  0.49935126  0.99643916     0.87600
C1749       C  0.75177757  0.50046591  0.05803219     0.87700
C1750       C  0.75050186  0.49624198  0.44233921     0.87800
O1751       O  0.79738590  0.52340514  0.25072378    -0.74500
O1752       O  0.71764235  0.52207166  0.24550695    -0.74500
O1753       O  0.75786233  0.52283406  0.29205060    -0.74600
O1754       O  0.75724591  0.52252588  0.20432106    -0.74600
O1755       O  0.74335805  0.97792016  0.20902163    -0.74500
O1756       O  0.74420102  0.97674857  0.29689299    -0.74500
O1757       O  0.70423431  0.97726474  0.25066398    -0.74500
O1758       O  0.78354709  0.97744339  0.25530602    -0.74600
Ni1759     Ni  0.75808423  0.52445485  0.24805109     1.25400
Ni1760     Ni  0.74326476  0.97562403  0.25305629     1.25400
C1761       C  0.80209078  0.49882886  0.25329922     0.87700
C1762       C  0.69580761  0.49724077  0.24633192     0.87600
C1763       C  0.74941095  0.49822582  0.30853743     0.87700
C1764       C  0.74896104  0.49770893  0.19158727     0.87800
C1765       C  0.74984964  0.49823814  0.34276650    -0.00200
C1766       C  0.72983436  0.97914108  0.35950854    -0.12100
C1767       C  0.72842029  0.97793900  0.39157965     0.02000
C1768       C  0.75015113  0.49594244  0.40817523    -0.00300
C1769       C  0.75429022  0.52274899  0.39044197    -0.12000
C1770       C  0.75429774  0.52420725  0.35828871     0.01900
H1771       H  0.71205613  0.96354145  0.34638429     0.14900
H1772       H  0.75744223  0.54290483  0.40171147     0.14900
C1773       C  0.75866388  0.55280335  0.34221655     0.36600
C1774       C  0.70283216  0.95619285  0.40591202     0.36500
N1775       N  0.76227087  0.57583504  0.32956116    -0.43800
N1776       N  0.68230301  0.93881659  0.41740518    -0.43800
C1777       C  0.75206562  0.50053908  0.09221675    -0.00200
C1778       C  0.73380024  0.97904235  0.11032460    -0.12100
C1779       C  0.73267107  0.97825655  0.14238063     0.02000
C1780       C  0.74978533  0.49779619  0.15744872    -0.00300
C1781       C  0.75943172  0.52529670  0.14016920    -0.12000
C1782       C  0.76086003  0.52696173  0.10808869     0.01900
H1783       H  0.71979469  0.95980530  0.09838710     0.14900
H1784       H  0.76607872  0.54584176  0.15173107     0.14900
C1785       C  0.77172424  0.55624086  0.09249343     0.36600
C1786       C  0.71187130  0.95207640  0.15760098     0.36500
N1787       N  0.78057792  0.57975233  0.08013975    -0.43800
N1788       N  0.69506091  0.93112340  0.16968120    -0.43800
C1789       C  0.61191817  0.00560502  0.24557046    -0.00200
C1790       C  0.61716528  0.98097894  0.26048842    -0.12100
C1791       C  0.64537172  0.97886995  0.26114531     0.02000
C1792       C  0.66507811  0.49764843  0.24400591    -0.00300
C1793       C  0.66119037  0.52444550  0.23351834    -0.12000
C1794       C  0.63334326  0.52716282  0.23251077     0.01900
H1795       H  0.59941248  0.96384205  0.27257126     0.14900
H1796       H  0.68004602  0.54358540  0.22605604     0.14900
C1797       C  0.63085925  0.55505994  0.22046960     0.36600
C1798       C  0.64949114  0.95336514  0.27783204     0.36500
N1799       N  0.62882431  0.57735164  0.21070583    -0.43800
N1800       N  0.65270583  0.93286389  0.29115591    -0.43800
C1801       C  0.83289408  0.49861888  0.25412677    -0.00200
C1802       C  0.83948073  0.97320783  0.25994971    -0.12100
C1803       C  0.86721702  0.97037419  0.25953872     0.02000
C1804       C  0.88979743  0.49476942  0.25108086    -0.00300
C1805       C  0.88661859  0.52259911  0.25046395    -0.12000
C1806       C  0.85856359  0.52480489  0.25202230     0.01900
H1807       H  0.82013107  0.95316088  0.26304069     0.14900
H1808       H  0.90602049  0.54270704  0.24798654     0.14900
C1809       C  0.85714851  0.55425033  0.25130736     0.36600
C1810       C  0.86860081  0.94090246  0.26494603     0.36500
N1811       N  0.85621547  0.57792424  0.25088275    -0.43800
N1812       N  0.86960018  0.91727842  0.26947088    -0.43800
C1813       C  0.66679341  0.49967559  0.99441708    -0.00200
C1814       C  0.66449595  0.52530177  0.48416148    -0.12100
C1815       C  0.63673776  0.52832160  0.48324708     0.02000
C1816       C  0.61089938  0.00836102  0.99430594    -0.00300
C1817       C  0.61473928  0.98162788  0.00460324    -0.12000
C1818       C  0.64283196  0.97918908  0.00600467     0.01900
H1819       H  0.68316716  0.54369397  0.47502269     0.14900
H1820       H  0.59584498  0.96284954  0.01271608     0.14900
C1821       C  0.64495573  0.95122698  0.01829347     0.36600
C1822       C  0.63442890  0.55606648  0.47044199     0.36500
N1823       N  0.64634429  0.92870259  0.02818815    -0.43800
N1824       N  0.63277617  0.57842644  0.46035723    -0.43800
C1825       C  0.83505358  0.49661376  0.50412921    -0.00200
C1826       C  0.85713441  0.51994122  0.48847007    -0.12100
C1827       C  0.88571372  0.51925423  0.48648605     0.02000
C1828       C  0.89252050  0.49482259  0.50023573    -0.00300
C1829       C  0.86749824  0.97069775  0.01348791    -0.12000
C1830       C  0.83919061  0.97197853  0.01555772     0.01900
H1831       H  0.85185314  0.53837227  0.47696644     0.14900
H1832       H  0.87183352  0.95099625  0.02281563     0.14900
C1833       C  0.81701044  0.94669795  0.03053850     0.36600
C1834       C  0.90716771  0.54311534  0.46900473     0.36500
N1835       N  0.79921740  0.92640658  0.04245411    -0.43800
N1836       N  0.92436217  0.56233573  0.45510364    -0.43800
C1837       C  0.49303248  0.98818453  0.40502412    -0.00200
C1838       C  0.01988493  0.98858238  0.39337840    -0.12100
C1839       C  0.02778723  0.99944876  0.36325992     0.02000
C1840       C  0.50716217  0.50770781  0.34073131    -0.00300
C1841       C  0.48568334  0.51451935  0.35546029    -0.12000
C1842       C  0.47954054  0.50516529  0.38622711     0.01900
H1843       H  0.03438197  0.97962128  0.40765473     0.14900
H1844       H  0.47398786  0.52775275  0.34305337     0.14900
C1845       C  0.45850236  0.51457390  0.40038969     0.36600
C1846       C  0.05495269  0.99791002  0.35293542     0.36500
N1847       N  0.44169142  0.52221965  0.41167427    -0.43800
N1848       N  0.07679750  0.99670238  0.34486402    -0.43800
C1849       C  0.49557099  0.99369321  0.15349099    -0.00200
C1850       C  0.02518132  0.00896374  0.14438235    -0.12100
C1851       C  0.03193791  0.01978875  0.11394675     0.02000
C1852       C  0.50736557  0.50700159  0.08952678    -0.00300
C1853       C  0.47771716  0.49247119  0.09757658    -0.12000
C1854       C  0.47038208  0.48182192  0.12780684     0.01900
H1855       H  0.04323590  0.01187456  0.16143867     0.14900
H1856       H  0.45995894  0.48936425  0.08012956     0.14900
C1857       C  0.43931397  0.46696209  0.13381832     0.36600
C1858       C  0.06281753  0.03483905  0.10722621     0.36500
N1859       N  0.41435821  0.45515255  0.13834844    -0.43800
N1860       N  0.08759650  0.04693748  0.10204585    -0.43800
C1861       C  0.49664285  0.83282162  0.24434923    -0.00200
C1862       C  0.52260951  0.85769694  0.23898145    -0.12100
C1863       C  0.52220258  0.88672542  0.23712600     0.02000
C1864       C  0.49553903  0.89139602  0.24113923    -0.00300
C1865       C  0.96953423  0.86755717  0.24541946    -0.12000
C1866       C  0.96968306  0.83855285  0.24709615     0.01900
H1867       H  0.54329416  0.85452987  0.23567897     0.14900
H1868       H  0.94902964  0.87108749  0.24884162     0.14900
C1869       C  0.94197089  0.81468401  0.25338306     0.36600
C1870       C  0.54890473  0.91110069  0.22893219     0.36500
N1871       N  0.91967954  0.79567013  0.25834388    -0.43800
N1872       N  0.57023630  0.93045048  0.22174541    -0.43800
C1873       C  0.00227891  0.66740162  0.25667600    -0.00200
C1874       C  0.53125610  0.66364623  0.25744142    -0.12100
C1875       C  0.53369462  0.63560789  0.25723865     0.02000
C1876       C  0.00704067  0.61026739  0.25663943    -0.00300
C1877       C  0.97924758  0.61350831  0.25316872    -0.12000
C1878       C  0.97656794  0.64152066  0.25337806     0.01900
H1879       H  0.55137546  0.68301606  0.25909662     0.14900
H1880       H  0.95941120  0.59399777  0.25046121     0.14900
C1881       C  0.94704251  0.64265099  0.24995239     0.36600
C1882       C  0.56312872  0.63416608  0.25873684     0.36500
N1883       N  0.92334292  0.64346218  0.24727036    -0.43800
N1884       N  0.58668598  0.63297771  0.25997749    -0.43800
C1885       C  0.99852404  0.75130305  0.34270276    -0.00200
C1886       C  0.52627894  0.75554339  0.36032338    -0.12100
C1887       C  0.52748267  0.75622427  0.39243830     0.02000
C1888       C  0.00026170  0.75184927  0.40805583    -0.00300
C1889       C  0.97343090  0.74630412  0.39071894    -0.12000
C1890       C  0.97231947  0.74618539  0.35854149     0.01900
H1891       H  0.54666033  0.75956108  0.34876782     0.14900
H1892       H  0.95305878  0.74225049  0.40230520     0.14900
C1893       C  0.94395514  0.74142002  0.34264058     0.36600
C1894       C  0.55602946  0.76179930  0.40822533     0.36500
N1895       N  0.92121854  0.73770401  0.32994608    -0.43800
N1896       N  0.57897923  0.76626365  0.42069837    -0.43800
C1897       C  0.00089617  0.74719348  0.09293612    -0.00200
C1898       C  0.52552707  0.76653484  0.10860856    -0.12100
C1899       C  0.52617775  0.76890306  0.14041387     0.01800
C1900       C  0.00166671  0.75062117  0.15767347    -0.00300
C1901       C  0.97710751  0.73074510  0.14213620    -0.12000
C1902       C  0.97637925  0.72898692  0.11019937     0.01900
H1903       H  0.54415624  0.78108923  0.09556867     0.14900
H1904       H  0.95830975  0.71629606  0.15501652     0.14900
C1905       C  0.95020229  0.70803366  0.09609085     0.36600
C1906       C  0.55132832  0.79161477  0.15390334     0.36500
N1907       N  0.92909608  0.69132887  0.08490769    -0.43800
N1908       N  0.57148806  0.81008200  0.16435687    -0.43800
C1909       C  0.49371389  0.83116484  0.49745679    -0.00200
C1910       C  0.51811161  0.85605925  0.48764219    -0.12100
C1911       C  0.51740074  0.88493576  0.48664259     0.02000
C1912       C  0.49218567  0.88948501  0.49621347    -0.00300
C1913       C  0.97352860  0.86686006  0.01039495    -0.12000
C1914       C  0.97404559  0.83795632  0.01150437     0.01900
H1915       H  0.53763055  0.85294823  0.48000003     0.14900
H1916       H  0.95460403  0.87047354  0.01894808     0.14900
C1917       C  0.94948551  0.81413740  0.02513944     0.36600
C1918       C  0.54179443  0.90921070  0.47344056     0.36500
N1919       N  0.92979801  0.79506668  0.03606604    -0.43800
N1920       N  0.56108536  0.92852847  0.46225545    -0.43800
C1921       C  0.00530507  0.66789721  0.00127079    -0.00200
C1922       C  0.98067728  0.64303053  0.01067867    -0.12100
C1923       C  0.98111382  0.61407429  0.01107316     0.02000
C1924       C  0.00637918  0.60959404  0.00152447    -0.00300
C1925       C  0.53169420  0.63334030  0.99505720    -0.12000
C1926       C  0.53158406  0.66229891  0.99480813     0.01900
H1927       H  0.96121687  0.64620941  0.01838715     0.14900
H1928       H  0.55163723  0.62991376  0.98912223     0.14900
C1929       C  0.55846008  0.68632560  0.98622702     0.36600
C1930       C  0.95628868  0.58961273  0.02332193     0.36500
N1931       N  0.58016906  0.70535417  0.97937846    -0.43800
N1932       N  0.93760154  0.56829328  0.53325286    -0.43800
O1933       O  0.97539859  0.77985227  0.99831952    -0.74500
O1934       O  0.97718327  0.69949665  0.50147661    -0.74500
O1935       O  0.97376304  0.73628564  0.54370585    -0.74600
O1936       O  0.97679077  0.74284243  0.95530199    -0.74600
O1937       O  0.52580850  0.76158611  0.95745362    -0.74500
O1938       O  0.52386228  0.75846714  0.54621497    -0.74500
O1939       O  0.52741068  0.72125401  0.50462168    -0.74500
O1940       O  0.52411301  0.79836964  0.00056659    -0.74600
Ni1941     Ni  0.97255377  0.73753245  0.49958619     1.25400
Ni1942     Ni  0.52762903  0.75995520  0.00167061     1.25400
C1943       C  0.49881554  0.80145823  0.99967145     0.87700
C1944       C  0.50387314  0.69802008  0.50364599     0.87600
C1945       C  0.99824202  0.74624111  0.55945974     0.87700
C1946       C  0.00139449  0.75315980  0.94163091     0.87800
O1947       O  0.97562957  0.70264731  0.75243440    -0.74500
O1948       O  0.97177634  0.78060093  0.74575051    -0.74500
O1949       O  0.97414807  0.74199284  0.70516979    -0.74600
O1950       O  0.97358222  0.74127372  0.79297631    -0.74600
O1951       O  0.52302355  0.76124397  0.79560334    -0.74500
O1952       O  0.52393059  0.76297326  0.70788753    -0.74500
O1953       O  0.52137080  0.80129086  0.74888265    -0.74500
O1954       O  0.52496897  0.72277128  0.75471025    -0.74600
Ni1955     Ni  0.97205161  0.74096881  0.74897978     1.25400
Ni1956     Ni  0.52509554  0.76277511  0.75183447     1.25400
C1957       C  0.00083314  0.69940009  0.75447019     0.87700
C1958       C  0.99557204  0.80352359  0.74652451     0.87600
C1959       C  0.99896506  0.75188741  0.69182477     0.87700
C1960       C  0.99817157  0.75109831  0.80857806     0.87800
O1961       O  0.91985342  0.96751490  0.98728064    -0.80900
O1962       O  0.55833586  0.98948490  0.98867686    -0.65600
O1963       O  0.97723880  0.97671651  0.50789759    -1.12200
C1964       C  0.01015559  0.57987247  0.50152509     1.05900
O1965       O  0.58294997  0.53211890  0.50674991    -0.78800
O1966       O  0.54158826  0.52839868  0.54783855    -0.66400
Ni1967     Ni  0.94829642  0.94829219  0.98483576     1.34900
C1968       C  0.51576759  0.52184659  0.55781821     0.84700
O1969       O  0.51319101  0.94178429  0.00673784    -0.79400
O1970       O  0.97113478  0.92312815  0.98126660    -0.89700
C1971       C  0.58076337  0.00810455  0.49877692     0.84300
O1972       O  0.96160853  0.97007632  0.94691870    -0.67900
O1973       O  0.53295723  0.57680546  0.51643866    -0.87100
C1974       C  0.98761827  0.97779867  0.93702214     0.85100
C1975       C  0.49318438  0.91990165  0.99492893     1.06700
H1976       H  0.52493868  0.52736606  0.96570554     0.38500
O1977       O  0.52197285  0.52183864  0.98731750    -1.09800
O1978       O  0.99420860  0.52375845  0.54021576    -0.66500
Ni1979     Ni  0.98473115  0.51796395  0.49682477     1.26300
O1980       O  0.50908817  0.97632354  0.95379783    -0.66700
O1981       O  0.99058259  0.55903591  0.48787238    -0.79000
C1982       C  0.91983629  0.49357922  0.99526874     0.84500
O1983       O  0.94491959  0.51226249  0.50548722    -0.66100
Ni1984     Ni  0.55517490  0.55157075  0.51076572     1.27400
Ni1985     Ni  0.51810377  0.98264329  0.99716370     1.26100
H1986       H  0.97407077  0.97088696  0.52945874     0.39000
O1987       O  0.91704690  0.97076141  0.73639038    -0.80900
O1988       O  0.55492799  0.98924151  0.74104360    -0.65600
O1989       O  0.97481534  0.97800144  0.75744194    -1.12200
C1990       C  0.01084684  0.58271978  0.75666812     1.05900
O1991       O  0.58351819  0.53599830  0.75976835    -0.78800
O1992       O  0.54101093  0.52907052  0.80078998    -0.66400
Ni1993     Ni  0.94438701  0.95047098  0.73338795     1.34900
C1994       C  0.51491604  0.52179753  0.81028017     0.84700
O1995       O  0.50869116  0.94278190  0.75770234    -0.79400
O1996       O  0.96637991  0.92460042  0.72919616    -0.89700
C1997       C  0.57859587  0.01040570  0.74768968     0.84300
O1998       O  0.95929972  0.97351924  0.69657816    -0.67900
O1999       O  0.53203674  0.57841259  0.77253138    -0.87100
C2000       C  0.48560423  0.98041155  0.68729706     0.85100
C2001       C  0.48907697  0.92191858  0.74411479     1.06700
H2002       H  0.52850205  0.53406258  0.71868003     0.38500
O2003       O  0.52514473  0.52739006  0.74007221    -1.09800
O2004       O  0.99327468  0.52415811  0.79266528    -0.66500
Ni2005     Ni  0.98507544  0.52127904  0.74872567     1.26300
O2006       O  0.50680268  0.97823200  0.70525492    -0.66700
O2007       O  0.99146520  0.56263135  0.74193919    -0.79000
C2008       C  0.92190039  0.49546886  0.74689094     0.84500
O2009       O  0.94512211  0.51498005  0.75745013    -0.66100
Ni2010     Ni  0.55516712  0.55446721  0.76516544     1.27400
Ni2011     Ni  0.51498165  0.98388200  0.74875008     1.26100
H2012       H  0.97148418  0.97172940  0.77894215     0.39000
O2013       O  0.79935626  0.52483256  0.99987642    -0.74500
O2014       O  0.71956098  0.52414072  0.99529186    -0.74500
O2015       O  0.76208643  0.52350466  0.54217150    -0.74600
O2016       O  0.75889379  0.52411568  0.95396438    -0.74600
O2017       O  0.74060906  0.97592401  0.95921364    -0.74500
O2018       O  0.74013035  0.97419948  0.54678054    -0.74500
O2019       O  0.70120254  0.97438271  0.49945913    -0.74500
O2020       O  0.78024094  0.97338914  0.50654582    -0.74600
Ni2021     Ni  0.76007472  0.52628450  0.99753419     1.25400
Ni2022     Ni  0.74007002  0.97215775  0.50307604     1.25400
C2023       C  0.80363029  0.49999303  0.00255330     0.87700
C2024       C  0.69911496  0.49822114  0.49828523     0.87600
C2025       C  0.75335008  0.49915083  0.55901575     0.87700
C2026       C  0.75036799  0.49926409  0.94132885     0.87800
O2027       O  0.80042329  0.52641193  0.74969138    -0.74500
O2028       O  0.72136574  0.52648640  0.74566653    -0.74500
O2029       O  0.76192870  0.52705106  0.79150779    -0.74600
O2030       O  0.75962865  0.52525081  0.70382600    -0.74600
O2031       O  0.73709017  0.97385746  0.70944189    -0.74500
O2032       O  0.73884841  0.97589251  0.79708538    -0.74500
O2033       O  0.69820338  0.97504996  0.75082804    -0.74500
O2034       O  0.77768258  0.97496904  0.75570933    -0.74600
Ni2035     Ni  0.76144243  0.52804939  0.74750614     1.25400
Ni2036     Ni  0.73731583  0.97317073  0.75342473     1.25400
C2037       C  0.80490013  0.50173989  0.75244068     0.87700
C2038       C  0.69926426  0.50194549  0.74737681     0.87600
C2039       C  0.75328195  0.50254285  0.80815462     0.87700
C2040       C  0.75041870  0.50012206  0.69160106     0.87800
C2041       C  0.75341120  0.50254347  0.84223521    -0.00200
C2042       C  0.75218759  0.97744217  0.86152442    -0.12100
C2043       C  0.75316502  0.97675149  0.89373507     0.02000
C2044       C  0.75114610  0.49942752  0.90730898    -0.00300
C2045       C  0.75654508  0.52659120  0.88983621    -0.12000
C2046       C  0.75770059  0.52842099  0.85777691     0.01900
H2047       H  0.75499361  0.95933595  0.85053432     0.14900
H2048       H  0.75966237  0.54668540  0.90120254     0.14900
C2049       C  0.76275092  0.55716670  0.84176696     0.36600
C2050       C  0.75957037  0.95264487  0.91089610     0.36500
N2051       N  0.76680888  0.58027079  0.82909458    -0.43800
N2052       N  0.76502614  0.93348540  0.92459625    -0.43800
C2053       C  0.75329451  0.49983593  0.59296449    -0.00200
C2054       C  0.74575177  0.97333205  0.61167187    -0.12100
C2055       C  0.74530423  0.97234311  0.64380559     0.02000
C2056       C  0.75039740  0.49940460  0.65767382    -0.00300
C2057       C  0.76899792  0.52452923  0.64089478    -0.12000
C2058       C  0.77071300  0.52497294  0.60899174     0.01900
H2059       H  0.74559679  0.95383018  0.60089540     0.14900
H2060       H  0.78278238  0.54387484  0.65281383     0.14900
C2061       C  0.79129716  0.55129308  0.59376507     0.36600
C2062       C  0.74566041  0.94545860  0.66086330     0.36500
N2063       N  0.80789249  0.57248585  0.58182160    -0.43800
N2064       N  0.74612721  0.92390596  0.67437890    -0.43800
C2065       C  0.60730878  0.00671077  0.74484553    -0.00200
C2066       C  0.61139112  0.98100904  0.75854637    -0.12100
C2067       C  0.63913751  0.97782146  0.75922139     0.02000
C2068       C  0.66884144  0.50308566  0.74627700    -0.00300
C2069       C  0.66525491  0.53011828  0.73610251    -0.12000
C2070       C  0.63771091  0.53343486  0.73612343     0.01900
H2071       H  0.59309101  0.96385492  0.76987017     0.14900
H2072       H  0.68414336  0.54902130  0.72824408     0.14900
C2073       C  0.63575828  0.56187775  0.72537635     0.36600
C2074       C  0.64209943  0.95154595  0.77532013     0.36500
N2075       N  0.63431991  0.58472036  0.71681888    -0.43800
N2076       N  0.64434445  0.93046852  0.78832329    -0.43800
C2077       C  0.83571886  0.50152381  0.75339130    -0.00200
C2078       C  0.83433959  0.97173942  0.76124572    -0.12100
C2079       C  0.86232698  0.96946432  0.76080870     0.02000
C2080       C  0.89264527  0.49753953  0.75125732    -0.00300
C2081       C  0.88916092  0.52525421  0.74711577    -0.12000
C2082       C  0.86108185  0.52752498  0.74794310     0.01900
H2083       H  0.81535872  0.95163147  0.76571427     0.14900
H2084       H  0.90828654  0.54509176  0.74207620     0.14900
C2085       C  0.85924662  0.55676165  0.74214375     0.36600
C2086       C  0.86466676  0.94055401  0.76798251     0.36500
N2087       N  0.85795074  0.58025589  0.73743214    -0.43800
N2088       N  0.86649817  0.91741359  0.77394713    -0.43800
C2089       C  0.66859709  0.49922238  0.49691373    -0.00200
C2090       C  0.66258835  0.52628045  0.98379511    -0.12100
C2091       C  0.63457181  0.52872167  0.98279260     0.02000
C2092       C  0.60993108  0.00531823  0.49555318    -0.00300
C2093       C  0.61333320  0.97792981  0.50354699    -0.12000
C2094       C  0.64124808  0.97511678  0.50387911     0.01900
H2095       H  0.68136174  0.54553337  0.97638185     0.14900
H2096       H  0.59431952  0.95894097  0.51097020     0.14900
C2097       C  0.64312609  0.94663646  0.51447247     0.36600
C2098       C  0.63213026  0.55683080  0.97147558     0.36500
N2099       N  0.64442800  0.92376803  0.52315784    -0.43800
N2100       N  0.63032184  0.57941481  0.96245887    -0.43800
C2101       C  0.83422683  0.49959854  0.00330822    -0.00200
C2102       C  0.85641515  0.52287803  0.98767677    -0.12100
C2103       C  0.88477716  0.52170528  0.98528366     0.02000
C2104       C  0.89121403  0.49700131  0.99875428    -0.00300
C2105       C  0.86878473  0.97265971  0.51842609    -0.12000
C2106       C  0.84031517  0.97333056  0.52089508     0.01900
H2107       H  0.85131281  0.54147425  0.97634193     0.14900
H2108       H  0.87408732  0.95385331  0.52891842     0.14900
C2109       C  0.81934210  0.94913747  0.53849795     0.36600
C2110       C  0.90639446  0.54510708  0.96747057     0.36500
N2111       N  0.80269277  0.92971230  0.55271190    -0.43800
N2112       N  0.92390937  0.56368893  0.95323342    -0.43800
C2113       C  0.49245642  0.98854161  0.90385479    -0.00200
C2114       C  0.01719536  0.98569007  0.89053797    -0.12100
C2115       C  0.02380179  0.99612505  0.86001961     0.02000
C2116       C  0.50876396  0.50962868  0.84231773    -0.00300
C2117       C  0.48021579  0.48942334  0.84869061    -0.12000
C2118       C  0.47287288  0.47739671  0.87858371     0.01900
H2119       H  0.03112444  0.97522273  0.90365803     0.14900
H2120       H  0.46351705  0.48281894  0.83018115     0.14900
C2121       C  0.44336973  0.45610862  0.88331101     0.36600
C2122       C  0.04861967  0.99164636  0.84733198     0.36500
N2123       N  0.41970810  0.43903837  0.88693466    -0.43800
N2124       N  0.06852291  0.98795922  0.83733163    -0.43800
C2125       C  0.49189578  0.99036077  0.65445973    -0.00200
C2126       C  0.02140870  0.00416908  0.64674863    -0.12100
C2127       C  0.02896848  0.01479391  0.61652886     0.02000
C2128       C  0.51094075  0.51263759  0.59060880    -0.00300
C2129       C  0.49327265  0.52385201  0.60632207    -0.12000
C2130       C  0.48738815  0.51522685  0.63726640     0.01900
H2131       H  0.03901847  0.00759774  0.66440264     0.14900
H2132       H  0.48429568  0.53967056  0.59444627     0.14900
C2133       C  0.47036994  0.52867470  0.65277779     0.36600
C2134       C  0.06003899  0.02985946  0.61063884     0.36500
N2135       N  0.45687364  0.53952015  0.66530588    -0.43800
N2136       N  0.08497045  0.04184897  0.60609290    -0.43800
C2137       C  0.49386692  0.83429074  0.74649155    -0.00200
C2138       C  0.51890353  0.85944619  0.73886241    -0.12100
C2139       C  0.51794556  0.88823462  0.73789514     0.02000
C2140       C  0.49170445  0.89229981  0.74506638    -0.00300
C2141       C  0.96674616  0.86663862  0.75363960    -0.12000
C2142       C  0.96766955  0.83794685  0.75460248     0.01900
H2143       H  0.53915715  0.85664892  0.73299831     0.14900
H2144       H  0.94681471  0.86970006  0.76020633     0.14900
C2145       C  0.94199338  0.81368904  0.76564261     0.36600
C2146       C  0.54339538  0.91295927  0.72732682     0.36500
N2147       N  0.92142351  0.79433362  0.77460787    -0.43800
N2148       N  0.56366152  0.93260255  0.71826974    -0.43800
C2149       C  0.00246550  0.66899053  0.75618085    -0.00200
C2150       C  0.53052926  0.66687576  0.75886497    -0.12100
C2151       C  0.53371910  0.63915720  0.75975885     0.02000
C2152       C  0.00844204  0.61249339  0.75685554    -0.00300
C2153       C  0.98030723  0.61493932  0.75440503    -0.12000
C2154       C  0.97701696  0.64263490  0.75459494     0.01900
H2155       H  0.55033623  0.68657611  0.76045329     0.14900
H2156       H  0.96069254  0.59500912  0.75292702     0.14900
C2157       C  0.94714997  0.64281968  0.75371641     0.36600
C2158       C  0.56342887  0.63846729  0.76294586     0.36500
N2159       N  0.92312678  0.64268543  0.75330325    -0.43800
N2160       N  0.58723715  0.63796588  0.76576111    -0.43800
C2161       C  0.99831892  0.75139987  0.84259092    -0.00200
C2162       C  0.52090729  0.77335038  0.85803888    -0.12100
C2163       C  0.52197498  0.77458739  0.89006924     0.02000
C2164       C  0.00086511  0.75353445  0.90751415    -0.00300
C2165       C  0.97680592  0.73254379  0.89243677    -0.12000
C2166       C  0.97528431  0.73132620  0.86039792     0.01900
H2167       H  0.53735817  0.79062304  0.84459220     0.14900
H2168       H  0.95920686  0.71661877  0.90578829     0.14900
C2169       C  0.95023189  0.70863965  0.84669340     0.36600
C2170       C  0.54413409  0.79982076  0.90365670     0.36500
N2171       N  0.93013110  0.69050727  0.83570070    -0.43800
N2172       N  0.56170364  0.82025474  0.91441106    -0.43800
C2173       C  0.99818695  0.74653103  0.59345781    -0.00200
C2174       C  0.52302702  0.76895639  0.60871708    -0.12100
C2175       C  0.52371990  0.77129688  0.64053756     0.01800
C2176       C  0.99922443  0.75087263  0.65794458    -0.00300
C2177       C  0.97548109  0.72941187  0.64303683    -0.12000
C2178       C  0.97479873  0.72697514  0.61122077     0.01900
H2179       H  0.54132134  0.78398720  0.59555525     0.14900
H2180       H  0.95751372  0.71405162  0.65637549     0.14900
C2181       C  0.95031213  0.70350463  0.59781916     0.36600
C2182       C  0.54877007  0.79414330  0.65402917     0.36500
N2183       N  0.93066993  0.68457516  0.58727099    -0.43800
N2184       N  0.56890595  0.81256885  0.66458205    -0.43800
C2185       C  0.49751790  0.83185450  0.99988979    -0.00200
C2186       C  0.52175694  0.85655307  0.98931714    -0.12100
C2187       C  0.52107206  0.88549193  0.98785943     0.02000
C2188       C  0.49601656  0.89024126  0.99762005    -0.00300
C2189       C  0.96741315  0.86428333  0.50641472    -0.12000
C2190       C  0.96777543  0.83527551  0.50749683     0.01900
H2191       H  0.54094598  0.85318881  0.98113928     0.14900
H2192       H  0.94784715  0.86781533  0.51334866     0.14900
C2193       C  0.94207294  0.81126072  0.51886554     0.36600
C2194       C  0.54522046  0.90954419  0.97395863     0.36500
N2195       N  0.92147527  0.79208129  0.52805700    -0.43800
N2196       N  0.56435253  0.92870125  0.96232947    -0.43800
C2197       C  0.00515807  0.66713095  0.50279938    -0.00200
C2198       C  0.98051444  0.64173142  0.51098752    -0.12100
C2199       C  0.98154887  0.61303070  0.51089220     0.02000
C2200       C  0.00727465  0.60929960  0.50155906    -0.00300
C2201       C  0.53291447  0.63508271  0.49571678    -0.12000
C2202       C  0.53238653  0.66383693  0.49623351     0.01900
H2203       H  0.96059079  0.64428091  0.51826836     0.14900
H2204       H  0.55310120  0.63218603  0.48972096     0.14900
C2205       C  0.55909331  0.68837660  0.48825637     0.36600
C2206       C  0.95703627  0.58810186  0.52295535     0.36500
N2207       N  0.58059466  0.70792687  0.48190436    -0.43800
N2208       N  0.93652133  0.57014183  0.03356761    -0.43800
loop_ 
_geom_bond_atom_site_label_1 
_geom_bond_atom_site_label_2 
_geom_bond_distance 
_geom_bond_site_symmetry_2 
_ccdc_geom_bond_type 
O1         Ni285   1.907       .  S
O1         C1115   1.279       .  A
O2           Ni9   1.920       .  S
O2         C1116   1.281       .  A
O3           Ni9   1.924       .  S
O3           C13   1.283       .  A
O4         Ni285   1.916       .  S
O4           C14   1.282       .  A
O5          Ni10   1.917       .  S
O5         C1118   1.281       .  A
O6         Ni286   1.912       .  S
O6         C1117   1.281   1_455  A
O7         Ni286   1.908       .  S
O7           C12   1.280   1_455  A
O8          Ni10   1.916       .  S
O8           C11   1.281       .  A
Ni9         O277   1.916   1_554  S
Ni9         O280   1.923   1_554  S
Ni9       Ni1390   2.385       .  S
Ni10        O282   1.919       .  S
Ni10        O283   1.914       .  S
Ni10      Ni1389   2.384   1_455  S
C11        O1105   1.280   1_455  A
C11         C253   1.482   1_455  S
C12        O1106   1.282       .  A
C12        C1369   1.482   1_554  S
C13        O1110   1.281       .  A
C13         C241   1.486       .  S
C14        O1109   1.281       .  A
C14         C232   1.489       .  S
O15         Ni23   1.909       .  S
O15          C25   1.279       .  A
O16         Ni23   1.907       .  S
O16          C26   1.279       .  A
O17         Ni23   1.916       .  S
O17          C27   1.281       .  A
O18         Ni23   1.915       .  S
O18          C28   1.281       .  A
O19         Ni24   1.919       .  S
O19        C1132   1.283   1_455  A
O20         Ni24   1.920       .  S
O20        C1131   1.282   1_455  A
O21         Ni24   1.916       .  S
O21        C1130   1.281   1_455  A
O22         Ni24   1.917       .  S
O22        C1129   1.283       .  A
Ni23      Ni1128   2.383       .  S
Ni24      Ni1127   2.383   1_455  S
C25        O1126   1.284       .  A
C25         C217   1.491       .  S
C26        O1125   1.282       .  A
C26        C1309   1.483       .  S
C27        O1124   1.282       .  A
C27         C244   1.485       .  S
C28        O1123   1.282       .  A
C28         C229   1.490       .  S
O29         Ni35   1.923       .  S
O29         C602   1.271       .  A
O30         Ni53   1.910       .  S
O30         C315   1.268       .  A
O31          H54   0.968       .  S
O31        Ni311   1.915   1_554  S
O31       Ni1433   1.908   1_554  S
O31        Ni599   1.916   1_554  S
C32          O49   1.265   1_554  A
C32        O1145   1.269       .  A
C32         C268   1.469   1_554  S
O33         Ni52   1.916       .  S
O33         C591   1.269   1_554  A
O34         Ni52   1.902       .  S
O34          C36   1.271       .  A
Ni35         O38   1.932       .  S
Ni35         O40   1.900       .  S
Ni35        O307   1.918       .  S
C36        O1150   1.279   1_455  A
C36         C196   1.489       .  S
O37         Ni53   1.899       .  S
O37          C43   1.265   1_455  A
O38        C1147   1.271       .  A
C39         O306   1.270       .  A
C39         O585   1.269   1_556  A
C39         C160   1.483       .  S
O40          C42   1.271       .  A
O41         Ni52   1.927       .  S
O41        C1136   1.269   1_554  A
C42        O1152   1.277       .  A
C42        C1285   1.478       .  S
C43        O1142   1.271       .  A
C43         C256   1.469       .  S
H44          O45   0.969       .  S
O45        Ni605   1.927   1_545  S
O45       Ni1427   1.907   1_455  S
O45        Ni328   1.918       .  S
O46         Ni47   1.940   1_554  S
O46        C1140   1.279       .  A
Ni47         O51   1.900   1_556  S
Ni47         O49   1.901       .  S
Ni47        O583   1.922   1_546  S
Ni47       O1425   1.906       .  S
O48         Ni53   1.939       .  S
O48        C1146   1.277   1_455  A
C50         O581   1.270       .  A
C50         O327   1.265   1_565  A
C50         C172   1.474       .  S
O51         C326   1.266   1_544  A
Ni52        O321   1.919   1_554  S
Ni53       O1411   1.908   1_455  S
Ni53        O597   1.925       .  S
O55         Ni61   1.918       .  S
O55         C628   1.271       .  A
O56         Ni79   1.904       .  S
O56          C65   1.266       .  A
O57          H80   0.967       .  S
O57         Ni61   1.915       .  S
O57       Ni1183   1.906       .  S
O57        Ni625   1.917       .  S
C58          O75   1.269       .  A
C58        O1171   1.270       .  A
C58         C220   1.487       .  S
O59         Ni78   1.923       .  S
O59         C617   1.271       .  A
O60         Ni78   1.904       .  S
O60          C62   1.271       .  A
Ni61         O64   1.931       .  S
Ni61         O66   1.897       .  S
C62        O1176   1.277   1_455  A
C62         C184   1.487       .  S
O63         Ni79   1.897       .  S
O63          C69   1.266   1_455  A
O64        C1173   1.272       .  A
C65         O611   1.269       .  A
C65         C133   1.477       .  S
O66        C1172   1.268       .  A
O67         Ni78   1.931       .  S
O67        C1162   1.271       .  A
C68          O74   1.276   1_655  A
C68        O1170   1.268       .  A
C68         C193   1.486       .  S
C69        O1168   1.272       .  A
C69         C208   1.470       .  S
H70          O71   0.967       .  S
O71         Ni78   1.917       .  S
O71        Ni631   1.919   1_545  S
O71       Ni1177   1.908   1_455  S
O72         Ni73   1.935       .  S
O72        C1166   1.276       .  A
Ni73         O77   1.907       .  S
Ni73         O75   1.909       .  S
Ni73        O609   1.923   1_545  S
Ni73       O1175   1.906       .  S
O74         Ni79   1.936       .  S
C76          O77   1.268   1_565  A
C76         O607   1.270       .  A
C76         C148   1.484       .  S
Ni79       O1161   1.905   1_455  S
Ni79        O623   1.927       .  S
O81         Ni89   1.920       .  S
O81          C91   1.282   1_545  A
O82         Ni89   1.919       .  S
O82         C368   1.284       .  A
O83        Ni365   1.915   1_554  S
O83          C93   1.280       .  A
O84         Ni89   1.915       .  S
O84          C94   1.281       .  A
O85        Ni366   1.921       .  S
O85         C646   1.282       .  A
O86         Ni90   1.915       .  S
O86         C645   1.283       .  A
O87         Ni90   1.916   1_556  S
O87         C644   1.280       .  A
O88         Ni90   1.913       .  S
O88         C919   1.281       .  A
Ni89        O359   1.913       .  S
Ni89       Ni918   2.383   1_545  S
Ni90        O361   1.917   1_554  S
Ni90       Ni917   2.382   1_554  S
C91         O916   1.280       .  A
C91         C169   1.486       .  S
C92         O358   1.284       .  A
C92         O639   1.278   1_546  A
C92         C157   1.488       .  S
C93         O638   1.283   1_545  A
C93         C121   1.492       .  S
C94         O637   1.282   1_545  A
C94         C112   1.486       .  S
O95        Ni103   1.923       .  S
O95         C105   1.282       .  A
O96        Ni103   1.922       .  S
O96         C106   1.283       .  A
O97        Ni103   1.919       .  S
O97         C107   1.281       .  A
O98        Ni103   1.918       .  S
O98         C108   1.282       .  A
O99        Ni104   1.914       .  S
O99         C660   1.280       .  A
O100       Ni104   1.916       .  S
O100        C659   1.282       .  A
O101       Ni104   1.917       .  S
O101        C658   1.280       .  A
O102       Ni104   1.913       .  S
O102        C657   1.283       .  A
Ni103      Ni656   2.383   1_545  S
Ni104      Ni655   2.381       .  S
C105        O654   1.281   1_545  A
C105        C145   1.493       .  S
C106        O653   1.279   1_545  A
C106        C136   1.487       .  S
C107        O652   1.281   1_545  A
C107        C109   1.485       .  S
C108        O651   1.281   1_545  A
C108        C124   1.490       .  S
C109        C114   1.414       .  A
C109        C662   1.405   1_545  A
C110        C111   1.403       .  A
C110        C661   1.408       .  A
C110        H115   1.085       .  S
C111        C664   1.416       .  A
C111        C118   1.444       .  S
C112        C113   1.407       .  A
C112        C663   1.414   1_545  A
C113        C114   1.402       .  A
C113        H116   1.085       .  S
C114        C117   1.445       .  S
C117        N119   1.157       .  T
C118        N120   1.157       .  T
C121        C126   1.418       .  A
C121        C674   1.406   1_545  A
C122        C123   1.398       .  A
C122        C673   1.405       .  A
C122        H127   1.085       .  S
C123        C676   1.417       .  A
C123        C130   1.444       .  S
C124        C125   1.406       .  A
C124        C675   1.416   1_545  A
C125        C126   1.401       .  A
C125        H128   1.085       .  S
C126        C129   1.445       .  S
C129        N131   1.157       .  T
C130        N132   1.157       .  T
C133        C134   1.403       .  A
C133        C690   1.410       .  A
C134        C135   1.403       .  A
C134        H139   1.085       .  S
C135        C688   1.418       .  A
C135        C142   1.444       .  S
C136        C137   1.406       .  A
C136        C687   1.419   1_545  A
C137        C138   1.400       .  A
C137        H140   1.085       .  S
C138        C685   1.409       .  A
C138        C141   1.445       .  S
C141        N143   1.157       .  T
C142        N144   1.157       .  T
C145        C150   1.419       .  A
C145        C698   1.407   1_545  A
C146        C147   1.394       .  A
C146        C697   1.405       .  A
C146        H151   1.084       .  S
C147        C700   1.413       .  A
C147        C154   1.446       .  S
C148        C149   1.404   1_565  A
C148        C699   1.414       .  A
C149        C150   1.404       .  A
C149        H152   1.085       .  S
C150        C153   1.443       .  S
C153        N155   1.157       .  T
C154        N156   1.157       .  T
C157        C434   1.405       .  A
C157        C714   1.420   1_546  A
C158        C159   1.397       .  A
C158        C433   1.405       .  A
C158        H163   1.085       .  S
C159        C988   1.414       .  A
C159        C166   1.445       .  S
C160        C161   1.403   1_556  A
C160        C987   1.414       .  A
C161        C162   1.404       .  A
C161        H164   1.085       .  S
C162        C709   1.420   1_554  A
C162        C165   1.444       .  S
C165        N167   1.157       .  T
C166        N168   1.157       .  T
C169        C170   1.408   1_565  A
C169       C1002   1.416       .  A
C170        C171   1.402       .  A
C170        H175   1.084       .  S
C171        C172   1.410   1_545  A
C171        C178   1.444       .  S
C172       C1001   1.400       .  A
C173        C174   1.398       .  A
C173       C1000   1.400   1_554  A
C173        H176   1.085       .  S
C174        C997   1.415       .  A
C174        C177   1.444       .  S
C177        N179   1.157       .  T
C178        N180   1.157       .  T
C181       C1146   1.479       .  S
C181       C1286   1.405   1_655  A
C181        C738   1.414       .  A
C182        C183   1.400       .  A
C182       C1285   1.404       .  A
C182        H187   1.085       .  S
C183       C1840   1.414       .  A
C183        C190   1.445       .  S
C184        C185   1.407   1_455  A
C184       C1839   1.415   1_545  A
C185        C186   1.399       .  A
C185        H188   1.085       .  S
C186        C733   1.415   1_545  A
C186        C189   1.445       .  S
C189        N191   1.158       .  T
C190        N192   1.157       .  T
C193       C1298   1.407   1_655  A
C193        C750   1.416       .  A
C194        C195   1.397       .  A
C194       C1297   1.407       .  A
C194        H199   1.085       .  S
C195       C1852   1.414       .  A
C195        C202   1.445       .  S
C196        C197   1.406   1_455  A
C196       C1851   1.417       .  A
C197        C198   1.397   1_545  A
C197        H200   1.085   1_545  S
C198        C745   1.416       .  A
C198        C201   1.444       .  S
C201        N203   1.157       .  T
C202        N204   1.157       .  T
C205       C1130   1.483       .  S
C205        C206   1.407   1_655  A
C205       C1314   1.416       .  A
C206        C207   1.400       .  A
C206        H211   1.085       .  S
C207        C208   1.409   1_455  A
C207        C214   1.444       .  S
C208       C1313   1.400       .  A
C209        C210   1.396       .  A
C209       C1312   1.399       .  A
C209        H212   1.085       .  S
C210       C1309   1.417       .  A
C210        C213   1.445       .  S
C213        N215   1.157       .  T
C214        N216   1.157       .  T
C217        C222   1.420       .  A
C217       C1322   1.405       .  A
C218        C219   1.398       .  A
C218       C1321   1.406       .  A
C218        H223   1.084       .  S
C219       C1324   1.416       .  A
C219        C226   1.445       .  S
C220        C221   1.403       .  A
C220       C1323   1.417       .  A
C221        C222   1.402       .  A
C221        H224   1.085       .  S
C222        C225   1.444       .  S
C225        N227   1.157       .  T
C226        N228   1.157       .  T
C229        C234   1.416       .  A
C229       C1334   1.407       .  A
C230        C231   1.401       .  A
C230       C1333   1.406   1_455  A
C230        H235   1.085       .  S
C231       C1336   1.416       .  A
C231        C238   1.444       .  S
C232        C233   1.405       .  A
C232       C1335   1.416       .  A
C233        C234   1.399       .  A
C233        H236   1.085       .  S
C234        C237   1.444       .  S
C237        N239   1.157       .  T
C238        N240   1.157       .  T
C241        C246   1.413       .  A
C241       C1346   1.406       .  A
C242        C243   1.401       .  A
C242       C1345   1.407   1_455  A
C242        H247   1.085       .  S
C243       C1348   1.413   1_455  A
C243        C250   1.445       .  S
C244        C245   1.406       .  A
C244       C1347   1.413       .  A
C245        C246   1.402       .  A
C245        H248   1.085       .  S
C246        C249   1.444       .  S
C249        N251   1.157       .  T
C250        N252   1.157       .  T
C253        C254   1.407   1_655  A
C253       C1638   1.416       .  A
C254        C255   1.401       .  A
C254        H259   1.085       .  S
C255        C256   1.408   1_455  A
C255        C262   1.444       .  S
C256       C1637   1.399       .  A
C257        C258   1.397       .  A
C257       C1636   1.400   1_554  A
C257        H260   1.085       .  S
C258       C1633   1.415   1_554  A
C258        C261   1.444       .  S
C261        N263   1.157       .  T
C262        N264   1.157       .  T
C265       C1116   1.482       .  S
C265        C266   1.407       .  A
C265       C1374   1.417   1_554  A
C266        C267   1.403       .  A
C266        H271   1.084       .  S
C267        C268   1.409   1_554  A
C267        C274   1.444       .  S
C268       C1373   1.398       .  A
C269        C270   1.396       .  A
C269       C1372   1.398       .  A
C269        H272   1.085       .  S
C270       C1369   1.417   1_455  A
C270        C273   1.445       .  S
C273        N275   1.157       .  T
C274        N552   1.157       .  T
N276        C550   1.157       .  T
O277       C1391   1.282   1_556  A
O278       Ni285   1.910       .  S
O278       C1392   1.279       .  A
O279       Ni285   1.915       .  S
O279        C289   1.281       .  A
O280        C290   1.283       .  A
O281       Ni286   1.909   1_556  S
O281       C1394   1.280   1_455  A
O282       C1393   1.282       .  A
O283        C288   1.281       .  A
O284       Ni286   1.909       .  S
O284        C287   1.280   1_455  A
Ni285     Ni1114   2.384       .  S
Ni286     Ni1113   2.384   1_455  S
C287       O1381   1.282       .  A
C287        C529   1.484       .  S
C288       O1382   1.280   1_455  A
C288       C1645   1.483       .  S
C289       O1386   1.282       .  A
C289        C517   1.491       .  S
C290       O1385   1.280       .  A
C290        C508   1.491       .  S
O291       Ni299   1.912       .  S
O291        C301   1.279       .  A
O292       Ni299   1.909       .  S
O292        C302   1.280       .  A
O293       Ni299   1.911       .  S
O293        C303   1.281       .  A
O294       Ni299   1.914       .  S
O294        C304   1.280       .  A
O295       Ni300   1.918       .  S
O295       C1408   1.283   1_455  A
O296       Ni300   1.921       .  S
O296       C1407   1.281       .  A
O297       Ni300   1.922       .  S
O297       C1406   1.282   1_455  A
O298       Ni300   1.923       .  S
O298       C1405   1.284       .  A
Ni299     Ni1404   2.382       .  S
Ni300     Ni1403   2.382   1_455  S
C301       O1402   1.284       .  A
C301        C493   1.494       .  S
C302       O1401   1.282       .  A
C302       C1585   1.484       .  S
C303       O1400   1.281       .  A
C303        C520   1.489       .  S
C304       O1399   1.283       .  A
C304        C505   1.491       .  S
O305       Ni311   1.925       .  S
O305        C878   1.271       .  A
O306       Ni329   1.914       .  S
O307        H330   0.967       .  S
O307      Ni1157   1.907       .  S
O307       Ni875   1.920       .  S
C308        O325   1.265       .  A
C308       O1421   1.269       .  A
C308        C544   1.468       .  S
O309       Ni328   1.911       .  S
O309        C867   1.268       .  A
O310       Ni328   1.898       .  S
O310        C312   1.270       .  A
Ni311       O314   1.926       .  S
Ni311       O316   1.902       .  S
C312       O1426   1.277   1_455  A
C312        C472   1.481       .  S
O313       Ni329   1.906   1_554  S
O313        C319   1.269   1_454  A
O314       C1423   1.271       .  A
C315        O861   1.269       .  A
C315        C436   1.482       .  S
O316        C318   1.271       .  A
O317       Ni328   1.927       .  S
O317       C1412   1.269       .  A
C318       O1428   1.275       .  A
C318       C1561   1.476       .  S
C319       O1418   1.271       .  A
C319        C532   1.471       .  S
H320        O321   0.968       .  S
O321       Ni881   1.922   1_545  S
O321      Ni1151   1.906   1_455  S
O322       Ni323   1.935       .  S
O322       C1416   1.277       .  A
Ni323       O327   1.900       .  S
Ni323       O325   1.904       .  S
Ni323       O859   1.925   1_545  S
Ni323      O1149   1.905       .  S
O324       Ni329   1.930       .  S
O324       C1422   1.275   1_455  A
C326        O857   1.271       .  A
C326        C448   1.476       .  S
Ni329      O1135   1.909   1_456  S
Ni329       O873   1.931       .  S
O331       Ni337   1.920       .  S
O331        C904   1.270       .  A
O332       Ni355   1.906       .  S
O332        C341   1.267       .  A
O333        H356   0.965       .  S
O333       Ni337   1.914       .  S
O333      Ni1459   1.906       .  S
O333       Ni901   1.913       .  S
C334        O351   1.268       .  A
C334       O1447   1.269       .  A
C334        C496   1.485       .  S
O335       Ni354   1.922       .  S
O335        C893   1.270       .  A
O336       Ni354   1.904       .  S
O336        C338   1.273       .  A
Ni337       O340   1.930       .  S
Ni337       O342   1.900       .  S
C338       O1452   1.279   1_455  A
C338        C460   1.484       .  S
O339       Ni355   1.898       .  S
O339        C345   1.266   1_455  A
O340       C1449   1.272       .  A
C341        O887   1.269       .  A
C341        C409   1.478       .  S
O342       C1448   1.270       .  A
O343       Ni354   1.928       .  S
O343       C1438   1.269       .  A
C344       O1446   1.271       .  A
C344        O350   1.276   1_655  A
C344        C469   1.479       .  S
C345       O1444   1.272       .  A
C345        C484   1.471       .  S
H346        O347   0.965       .  S
O347       Ni907   1.927   1_545  S
O347      Ni1453   1.909   1_455  S
O347       Ni354   1.916       .  S
O348       Ni349   1.941       .  S
O348       C1442   1.279       .  A
Ni349       O353   1.908       .  S
Ni349       O351   1.913       .  S
Ni349       O885   1.921   1_545  S
Ni349      O1451   1.909       .  S
O350       Ni355   1.940       .  S
C352        O883   1.272       .  A
C352        O353   1.269   1_565  A
C352        C424   1.482       .  S
Ni355      O1437   1.907   1_455  S
Ni355       O899   1.925       .  S
O357       Ni365   1.924   1_554  S
O357        C367   1.283   1_545  A
O358       Ni365   1.922       .  S
O359        C369   1.280       .  A
O360       Ni365   1.913       .  S
O360        C370   1.281       .  A
O361        C922   1.281       .  A
O362       Ni366   1.918       .  S
O362        C921   1.282       .  A
O363       Ni366   1.916       .  S
O363        C920   1.280       .  A
O364       Ni366   1.914       .  S
O364        C643   1.281       .  A
Ni365      Ni642   2.383   1_546  S
Ni366      Ni641   2.385       .  S
C367        O640   1.279       .  A
C367        C445   1.487       .  S
C368        O915   1.279   1_545  A
C368        C433   1.490       .  S
C369        O914   1.282   1_545  A
C369        C397   1.487       .  S
C370        O913   1.282   1_545  A
C370        C388   1.485   1_545  S
O371       Ni379   1.915       .  S
O371        C381   1.280       .  A
O372       Ni379   1.914       .  S
O372        C382   1.281       .  A
O373       Ni379   1.917       .  S
O373        C383   1.281       .  A
O374       Ni379   1.916       .  S
O374        C384   1.282   1_545  A
O375       Ni380   1.913       .  S
O375        C936   1.280       .  A
O376       Ni380   1.910       .  S
O376        C935   1.280       .  A
O377       Ni380   1.920       .  S
O377        C934   1.282       .  A
O378       Ni380   1.919       .  S
O378        C933   1.284       .  A
Ni379      Ni932   2.383   1_545  S
Ni380      Ni931   2.383       .  S
C381        O930   1.283   1_545  A
C381        C421   1.494       .  S
C382        O929   1.282   1_545  A
C382        C412   1.486       .  S
C383        O928   1.281   1_545  A
C383        C385   1.487       .  S
C384        O927   1.281       .  A
C384        C400   1.488       .  S
C385        C938   1.406   1_545  A
C385        C390   1.415       .  A
C386        C937   1.408       .  A
C386        C387   1.400       .  A
C386        H391   1.085       .  S
C387        C940   1.416       .  A
C387        C394   1.445       .  S
C388        C939   1.414       .  A
C388        C389   1.405   1_565  A
C389        C390   1.400       .  A
C389        H392   1.085       .  S
C390        C393   1.444       .  S
C393        N395   1.157       .  T
C394        N396   1.158       .  T
C397        C950   1.405   1_545  A
C397        C402   1.416       .  A
C398        C949   1.404       .  A
C398        C399   1.399       .  A
C398        H403   1.085       .  S
C399        C952   1.414       .  A
C399        C406   1.444       .  S
C400        C951   1.416       .  A
C400        C401   1.405   1_565  A
C401        C402   1.400       .  A
C401        H404   1.085       .  S
C402        C405   1.445       .  S
C405        N407   1.157       .  T
C406        N408   1.157       .  T
C409        C410   1.403       .  A
C409        C966   1.410       .  A
C410        C411   1.403       .  A
C410        H415   1.085       .  S
C411        C964   1.417       .  A
C411        C418   1.444       .  S
C412        C963   1.416   1_545  A
C412        C413   1.407       .  A
C413        C414   1.400       .  A
C413        H416   1.085       .  S
C414        C961   1.410       .  A
C414        C417   1.444       .  S
C417        N419   1.157       .  T
C418        N420   1.157       .  T
C421        C974   1.406   1_545  A
C421        C426   1.421       .  A
C422        C973   1.406       .  A
C422        C423   1.396       .  A
C422        H427   1.084       .  S
C423        C976   1.412       .  A
C423        C430   1.445       .  S
C424        C975   1.412       .  A
C424        C425   1.402   1_565  A
C425        C426   1.404       .  A
C425        H428   1.085       .  S
C426        C429   1.444       .  S
C429        N431   1.157       .  T
C430        N432   1.157       .  T
C433        C990   1.420   1_545  A
C434        C435   1.398       .  A
C434        H439   1.085       .  S
C435        C712   1.412       .  A
C435        C442   1.445       .  S
C436        C711   1.412       .  A
C436        C437   1.403       .  A
C437        C438   1.404       .  A
C437        H440   1.085       .  S
C438        C985   1.419       .  A
C438        C441   1.444       .  S
C441        N443   1.157       .  T
C442        N444   1.157       .  T
C445        C446   1.407   1_564  A
C445        C726   1.418       .  A
C446        C447   1.402       .  A
C446        H451   1.084       .  S
C447        C448   1.410   1_545  A
C447        C454   1.444       .  S
C448        C725   1.401   1_556  A
C449        C724   1.401       .  A
C449        C450   1.399       .  A
C449        H452   1.085       .  S
C450        C721   1.414       .  A
C450        C453   1.444       .  S
C453        N455   1.157       .  T
C454        N456   1.157       .  T
C457       C1422   1.478       .  S
C457       C1562   1.406   1_655  A
C457       C1014   1.413       .  A
C458       C1561   1.405       .  A
C458        C459   1.396       .  A
C458        H463   1.085       .  S
C459       C2116   1.412       .  A
C459        C466   1.445       .  S
C460       C2115   1.415   1_545  A
C460        C461   1.406   1_455  A
C461        C462   1.398       .  A
C461        H464   1.085       .  S
C462       C1009   1.415   1_545  A
C462        C465   1.445       .  S
C465        N467   1.157       .  T
C466        N468   1.157       .  T
C469       C1574   1.406   1_655  A
C469       C1026   1.413       .  A
C470       C1573   1.404       .  A
C470        C471   1.399       .  A
C470        H475   1.085       .  S
C471       C2128   1.412       .  A
C471        C478   1.445       .  S
C472       C2127   1.415       .  A
C472        C473   1.406   1_445  A
C473        C474   1.395       .  A
C473        H476   1.085       .  S
C474       C1021   1.414       .  A
C474        C477   1.445       .  S
C477        N479   1.157       .  T
C478        N480   1.158       .  T
C481       C1406   1.485       .  S
C481        C482   1.407   1_655  A
C481       C1590   1.418       .  A
C482        C483   1.401       .  A
C482        H487   1.084       .  S
C483        C484   1.409   1_455  A
C483        C490   1.443       .  S
C484       C1589   1.399       .  A
C485       C1588   1.399       .  A
C485        C486   1.396       .  A
C485        H488   1.085       .  S
C486       C1585   1.417       .  A
C486        C489   1.445       .  S
C489        N491   1.157       .  T
C490        N492   1.157       .  T
C493       C1598   1.406       .  A
C493        C498   1.421       .  A
C494       C1597   1.406       .  A
C494        C495   1.398       .  A
C494        H499   1.084       .  S
C495       C1600   1.415       .  A
C495        C502   1.445       .  S
C496       C1599   1.415       .  A
C496        C497   1.402       .  A
C497        C498   1.403       .  A
C497        H500   1.085       .  S
C498        C501   1.444       .  S
C501        N503   1.157       .  T
C502        N504   1.157       .  T
C505       C1610   1.405       .  A
C505        C510   1.418       .  A
C506       C1609   1.405   1_455  A
C506        C507   1.398       .  A
C506        H511   1.085       .  S
C507       C1612   1.417   1_455  A
C507        C514   1.445       .  S
C508       C1611   1.417       .  A
C508        C509   1.406       .  A
C509        C510   1.403       .  A
C509        H512   1.085       .  S
C510        C513   1.444       .  S
C513        N515   1.157       .  T
C514        N516   1.157       .  T
C517       C1622   1.408       .  A
C517        C522   1.415       .  A
C518       C1621   1.408       .  A
C518        C519   1.404       .  A
C518        H523   1.085       .  S
C519       C1624   1.416       .  A
C519        C526   1.444       .  S
C520       C1623   1.416       .  A
C520        C521   1.406       .  A
C521        C522   1.398       .  A
C521        H524   1.085       .  S
C522        C525   1.444       .  S
C525        N527   1.157       .  T
C526        N528   1.158       .  T
C529        C530   1.408   1_654  A
C529       C1362   1.415       .  A
C530        C531   1.400       .  A
C530        H535   1.085       .  S
C531        C532   1.407   1_455  A
C531        C538   1.444       .  S
C532       C1361   1.402   1_556  A
C533       C1360   1.400       .  A
C533        C534   1.397       .  A
C533        H536   1.085       .  S
C534       C1357   1.417       .  A
C534        C537   1.445       .  S
C537        N539   1.157       .  T
C538        N540   1.157       .  T
C541       C1392   1.480       .  S
C541        C542   1.407       .  A
C541       C1650   1.414       .  A
C542        C543   1.402       .  A
C542        H547   1.085       .  S
C543        C544   1.408       .  A
C543        C550   1.444       .  S
C544       C1649   1.400       .  A
C545       C1648   1.399       .  A
C545        C546   1.396       .  A
C545        H548   1.085       .  S
C546       C1645   1.416       .  A
C546        C549   1.444       .  S
C549        N551   1.157       .  T
O553       Ni837   1.919       .  S
O553       C1667   1.282       .  A
O554       Ni561   1.921   1_554  S
O554       C1668   1.283       .  A
O555       Ni561   1.911   1_554  S
O555        C565   1.279       .  A
O556       Ni837   1.920       .  S
O556        C566   1.283       .  A
O557       Ni562   1.914       .  S
O557       C1670   1.280   1_455  A
O558       Ni838   1.921       .  S
O558       C1669   1.283       .  A
O559       Ni838   1.914       .  S
O559        C564   1.281       .  A
O560       Ni562   1.916       .  S
O560        C563   1.281   1_455  A
Ni561       O829   1.922       .  S
Ni561       O832   1.914       .  S
Ni561     Ni1942   2.384   1_556  S
Ni562       O834   1.913       .  S
Ni562       O835   1.915       .  S
Ni562     Ni1941   2.382   1_455  S
C563       O1657   1.282       .  A
C563        C805   1.490       .  S
C564       O1658   1.282   1_455  A
C564       C1921   1.489       .  S
C565       O1662   1.283       .  A
C565        C793   1.487       .  S
C566       O1661   1.281       .  A
C566        C784   1.494       .  S
O567       Ni575   1.909       .  S
O567        C577   1.278       .  A
O568       Ni575   1.909       .  S
O568        C578   1.279       .  A
O569       Ni575   1.916       .  S
O569        C579   1.282       .  A
O570       Ni575   1.917       .  S
O570        C580   1.281       .  A
O571       Ni576   1.918       .  S
O571       C1684   1.282   1_455  A
O572       Ni576   1.918       .  S
O572       C1683   1.281       .  A
O573       Ni576   1.924       .  S
O573       C1682   1.283   1_455  A
O574       Ni576   1.925       .  S
O574       C1681   1.285       .  A
Ni575     Ni1680   2.381       .  S
Ni576     Ni1679   2.381   1_455  S
C577       O1678   1.284       .  A
C577        C769   1.495       .  S
C578       O1677   1.284       .  A
C578       C1861   1.492       .  S
C579       O1676   1.281       .  A
C579        C796   1.487       .  S
C580       O1675   1.282       .  A
C580        C781   1.494       .  S
O581       Ni587   1.923       .  S
O582       Ni605   1.914       .  S
O582        C867   1.271   1_565  A
O583        H606   0.968       .  S
O583       Ni863   1.921   1_554  S
O583      Ni1985   1.912   1_554  S
C584        O601   1.266   1_554  A
C584       O1697   1.269       .  A
C584        C820   1.474       .  S
O585       Ni604   1.913       .  S
O586       Ni604   1.902       .  S
O586        C588   1.272       .  A
Ni587       O590   1.928       .  S
Ni587       O592   1.903       .  S
Ni587       O859   1.920       .  S
C588       O1702   1.278   1_455  A
C588        C748   1.483       .  S
O589       Ni605   1.913       .  S
O589        C595   1.270   1_455  A
O590       C1699   1.271       .  A
C591        O858   1.269   1_545  A
C591        C712   1.477       .  S
O592        C594   1.271       .  A
O593       Ni604   1.929       .  S
O593       C1688   1.269       .  A
C594       O1704   1.276       .  A
C594       C1837   1.484       .  S
C595       O1694   1.271       .  A
C595        C808   1.479       .  S
H596        O597   0.968       .  S
O597      Ni1979   1.910   1_455  S
O597       Ni880   1.917       .  S
O598       Ni599   1.936   1_554  S
O598       C1692   1.278       .  A
Ni599       O603   1.899   1_556  S
Ni599       O601   1.907       .  S
Ni599      O1977   1.908       .  S
O600       Ni605   1.933       .  S
O600       C1698   1.276   1_455  A
C602        O879   1.267       .  A
C602        C724   1.470       .  S
O603        C878   1.266   1_554  A
Ni604       O873   1.919   1_554  S
Ni605      O1963   1.912   1_455  S
O607       Ni613   1.918       .  S
O608       Ni631   1.903       .  S
O608        C617   1.267   1_565  A
O609        H632   0.967       .  S
O609       Ni613   1.915       .  S
O609      Ni1735   1.907       .  S
C610        O627   1.269       .  A
C610       O1723   1.269       .  A
C610        C772   1.485       .  S
O611       Ni630   1.917       .  S
O612       Ni630   1.902       .  S
O612        C614   1.271       .  A
Ni613       O616   1.932       .  S
Ni613       O618   1.900       .  S
C614       O1728   1.278   1_455  A
C614        C736   1.480       .  S
O615       Ni631   1.904       .  S
O615        C621   1.266   1_455  A
O616       C1725   1.271       .  A
C617        C685   1.473       .  S
O618       C1724   1.270       .  A
O619       Ni630   1.930       .  S
O619       C1714   1.269       .  A
C620       O1722   1.271       .  A
C620        O626   1.279   1_655  A
C620        C745   1.489       .  S
C621       O1720   1.271       .  A
C621        C760   1.476       .  S
H622        O623   0.967       .  S
O623      Ni1729   1.911   1_455  S
O623       Ni630   1.919       .  S
O624       Ni625   1.940       .  S
O624       C1718   1.278       .  A
Ni625       O629   1.908       .  S
Ni625       O627   1.913       .  S
Ni625      O1727   1.911       .  S
O626       Ni631   1.943       .  S
C628        O629   1.269       .  A
C628        C700   1.481       .  S
Ni631      O1713   1.908   1_455  S
O633       Ni641   1.914       .  S
O633        C643   1.281       .  A
O634       Ni641   1.918       .  S
O634        C920   1.283       .  A
O635       Ni917   1.912   1_554  S
O635        C645   1.279       .  A
O636       Ni641   1.913       .  S
O636        C646   1.282       .  A
O637       Ni918   1.918       .  S
O638       Ni642   1.920       .  S
O639       Ni642   1.906       .  S
O640       Ni642   1.905       .  S
Ni641       O911   1.915       .  S
Ni642       O913   1.919   1_554  S
C643        C721   1.480       .  S
C644        O910   1.283       .  A
C644        C709   1.492       .  S
C645        C673   1.490       .  S
C646        C664   1.492       .  S
O647       Ni655   1.915       .  S
O647        C657   1.279       .  A
O648       Ni655   1.913       .  S
O648        C658   1.282       .  A
O649       Ni655   1.917       .  S
O649        C659   1.281       .  A
O650       Ni655   1.917       .  S
O650        C660   1.282       .  A
O651       Ni656   1.915       .  S
O652       Ni656   1.915       .  S
O653       Ni656   1.911       .  S
O654       Ni656   1.910       .  S
C657        C697   1.491       .  S
C658        C688   1.488       .  S
C659        C661   1.492       .  S
C660        C676   1.492       .  S
C661        C666   1.416       .  A
C662        C663   1.400       .  A
C662        H667   1.085       .  S
C663        C670   1.444       .  S
C664        C665   1.406       .  A
C665        C666   1.399       .  A
C665        H668   1.085       .  S
C666        C669   1.444       .  S
C669        N671   1.157       .  T
C670        N672   1.157       .  T
C673        C678   1.418       .  A
C674        C675   1.400       .  A
C674        H679   1.085       .  S
C675        C682   1.444       .  S
C676        C677   1.407       .  A
C677        C678   1.401       .  A
C677        H680   1.084       .  S
C678        C681   1.445       .  S
C681        N683   1.158       .  T
C682        N684   1.157       .  T
C685        C686   1.400   1_545  A
C686        C687   1.401       .  A
C686        H691   1.085       .  S
C687        C694   1.444       .  S
C688        C689   1.406       .  A
C689        C690   1.396       .  A
C689        H692   1.084       .  S
C690        C693   1.445       .  S
C693        N695   1.157       .  T
C694        N696   1.157       .  T
C697        C702   1.421       .  A
C698        C699   1.396       .  A
C698        H703   1.084       .  S
C699        C706   1.446       .  S
C700        C701   1.403       .  A
C701        C702   1.404       .  A
C701        H704   1.085       .  S
C702        C705   1.444       .  S
C705        N707   1.157       .  T
C706        N708   1.157       .  T
C709        C986   1.405       .  A
C710        C985   1.406       .  A
C710        C711   1.399       .  A
C710        H715   1.085       .  S
C711        C718   1.444       .  S
C712        C713   1.400   1_546  A
C713        C714   1.400       .  A
C713        H716   1.085       .  S
C714        C717   1.444       .  S
C717        N719   1.157       .  T
C718        N720   1.157       .  T
C721        C722   1.406       .  A
C722        C723   1.400       .  A
C722        H727   1.085       .  S
C723        C724   1.409       .  A
C723        C730   1.444       .  S
C725        C726   1.399       .  A
C725        H728   1.085       .  S
C726        C729   1.445       .  S
C729        N731   1.158       .  T
C730        N732   1.157       .  T
C733       C1698   1.486       .  S
C733       C1838   1.407   1_655  A
C734       C1837   1.407       .  A
C734        C735   1.397       .  A
C734        H739   1.085       .  S
C735       C1288   1.415   1_565  A
C735        C742   1.445       .  S
C736       C1287   1.415       .  A
C736        C737   1.404   1_455  A
C737        C738   1.397       .  A
C737        H740   1.085       .  S
C738        C741   1.445       .  S
C741        N743   1.157       .  T
C742        N744   1.157       .  T
C745       C1850   1.407   1_665  A
C746       C1849   1.407   1_545  A
C746        C747   1.401       .  A
C746        H751   1.085       .  S
C747       C1300   1.417       .  A
C747        C754   1.445       .  S
C748       C1299   1.414       .  A
C748        C749   1.406   1_455  A
C749        C750   1.396       .  A
C749        H752   1.085       .  S
C750        C753   1.445       .  S
C753        N755   1.157       .  T
C754        N756   1.158       .  T
C757       C1682   1.491       .  S
C757        C758   1.409   1_655  A
C757       C1866   1.420       .  A
C758        C759   1.403       .  A
C758        H763   1.084       .  S
C759        C760   1.409   1_455  A
C759        C766   1.443       .  S
C760       C1865   1.400       .  A
C761       C1864   1.401       .  A
C761        C762   1.398       .  A
C761        H764   1.085       .  S
C762       C1861   1.420       .  A
C762        C765   1.445       .  S
C765        N767   1.157       .  T
C766        N768   1.157       .  T
C769       C1874   1.406       .  A
C769        C774   1.422       .  A
C770       C1873   1.405       .  A
C770        C771   1.400       .  A
C770        H775   1.084       .  S
C771       C1876   1.417       .  A
C771        C778   1.445       .  S
C772       C1875   1.416       .  A
C772        C773   1.402       .  A
C773        C774   1.402       .  A
C773        H776   1.085       .  S
C774        C777   1.444       .  S
C777        N779   1.157       .  T
C778        N780   1.157       .  T
C781       C1886   1.407       .  A
C781        C786   1.417       .  A
C782       C1885   1.407   1_455  A
C782        C783   1.401       .  A
C782        H787   1.085       .  S
C783       C1888   1.418       .  A
C783        C790   1.445       .  S
C784       C1887   1.418       .  A
C784        C785   1.406       .  A
C785        C786   1.401       .  A
C785        H788   1.085       .  S
C786        C789   1.444       .  S
C789        N791   1.157       .  T
C790        N792   1.157       .  T
C793       C1898   1.405       .  A
C793        C798   1.416       .  A
C794       C1897   1.405       .  A
C794        C795   1.401       .  A
C794        H799   1.085       .  S
C795       C1900   1.415       .  A
C795        C802   1.444       .  S
C796       C1899   1.415       .  A
C796        C797   1.406       .  A
C797        C798   1.400       .  A
C797        H800   1.085       .  S
C798        C801   1.445       .  S
C801        N803   1.157       .  T
C802        N804   1.157       .  T
C805        C806   1.408   1_655  A
C805       C2190   1.417       .  A
C806        C807   1.402       .  A
C806        H811   1.084       .  S
C807        C808   1.408   1_455  A
C807        C814   1.443       .  S
C808       C2189   1.404       .  A
C809       C2188   1.403   1_554  A
C809        C810   1.401       .  A
C809        H812   1.085       .  S
C810       C2185   1.416   1_554  A
C810        C813   1.445       .  S
C813        N815   1.157       .  T
C814        N816   1.157       .  T
C817       C1668   1.491       .  S
C817        C818   1.410       .  A
C817       C1926   1.419   1_554  A
C818        C819   1.403       .  A
C818        H823   1.084       .  S
C819        C820   1.408       .  A
C819        C826   1.444       .  S
C820       C1925   1.400   1_554  A
C821       C1924   1.400   1_556  A
C821        C822   1.398       .  A
C821        H824   1.085       .  S
C822       C1921   1.418   1_556  A
C822        C825   1.444       .  S
C825        N827   1.157       .  T
C826       N1104   1.157       .  T
N828       C1102   1.157       .  T
O829       C1943   1.283       .  A
O830       Ni837   1.918       .  S
O830       C1944   1.282       .  A
O831       Ni837   1.919       .  S
O831        C841   1.281       .  A
O832        C842   1.280       .  A
O833       Ni838   1.922   1_556  S
O833       C1946   1.283       .  A
O834       C1945   1.281   1_455  A
O835        C840   1.281       .  A
O836       Ni838   1.916       .  S
O836        C839   1.281   1_454  A
Ni837     Ni1666   2.382       .  S
Ni838     Ni1665   2.384   1_454  S
C839       O1933   1.283       .  A
C839       C1081   1.488   1_556  S
C840       O1934   1.282   1_455  A
C840       C2197   1.490       .  S
C841       O1938   1.282       .  A
C841       C1069   1.487       .  S
C842       O1937   1.283       .  A
C842       C1060   1.484       .  S
O843       Ni851   1.907       .  S
O843        C853   1.278       .  A
O844       Ni851   1.908       .  S
O844        C854   1.279       .  A
O845       Ni851   1.919       .  S
O845        C855   1.283       .  A
O846       Ni851   1.921       .  S
O846        C856   1.282       .  A
O847       Ni852   1.913       .  S
O847       C1960   1.281   1_455  A
O848       Ni852   1.913       .  S
O848       C1959   1.280   1_455  A
O849       Ni852   1.922       .  S
O849       C1958   1.283   1_455  A
O850       Ni852   1.921       .  S
O850       C1957   1.284       .  A
Ni851     Ni1956   2.383       .  S
Ni852     Ni1955   2.383   1_455  S
C853       O1954   1.284       .  A
C853       C1045   1.491       .  S
C854       O1953   1.283       .  A
C854       C2137   1.489       .  S
C855       O1952   1.280       .  A
C855       C1072   1.487       .  S
C856       O1951   1.281       .  A
C856       C1057   1.484       .  S
O857       Ni863   1.926       .  S
O858       Ni881   1.907       .  S
O859        H882   0.965       .  S
O859      Ni1709   1.912       .  S
C860        O877   1.267       .  A
C860       O1973   1.270       .  A
C860       C1096   1.477       .  S
O861       Ni880   1.919       .  S
O862       Ni880   1.903       .  S
O862        C864   1.272       .  A
Ni863       O866   1.932       .  S
Ni863       O868   1.904       .  S
C864       O1978   1.278   1_455  A
C864       C1024   1.477       .  S
O865       Ni881   1.910   1_554  S
O865        C871   1.268   1_454  A
O866       C1975   1.271       .  A
C867        C988   1.480       .  S
O868        C870   1.271       .  A
O869       Ni880   1.928       .  S
O869       C1964   1.270       .  A
C870       O1980   1.277       .  A
C870       C2113   1.483       .  S
C871       O1970   1.271       .  A
C871       C1084   1.477       .  S
H872        O873   0.964       .  S
O873      Ni1703   1.908   1_455  S
O874       Ni875   1.939       .  S
O874       C1968   1.277       .  A
Ni875       O879   1.901       .  S
Ni875       O877   1.909       .  S
Ni875      O1701   1.911       .  S
O876       Ni881   1.938       .  S
O876       C1974   1.277   1_455  A
C878       C1000   1.471       .  S
Ni881      O1687   1.912   1_456  S
O883       Ni889   1.923       .  S
O884       Ni907   1.904       .  S
O884        C893   1.267   1_565  A
O885        H908   0.967       .  S
O885       Ni889   1.914       .  S
O885      Ni2011   1.906       .  S
C886        O903   1.267       .  A
C886       O1999   1.269       .  A
C886       C1048   1.483       .  S
O887       Ni906   1.918       .  S
O888       Ni906   1.900       .  S
O888        C890   1.271       .  A
Ni889       O892   1.933       .  S
Ni889       O894   1.903       .  S
C890       O2004   1.277   1_455  A
C890       C1012   1.477       .  S
O891       Ni907   1.903       .  S
O891        C897   1.267   1_455  A
O892       C2001   1.272       .  A
C893        C961   1.476       .  S
O894       C2000   1.271       .  A
O895       Ni906   1.929       .  S
O895       C1990   1.269       .  A
C896       O1998   1.270       .  A
C896        O902   1.275   1_655  A
C896       C1021   1.482       .  S
C897       O1996   1.272       .  A
C897       C1036   1.474       .  S
H898        O899   0.966       .  S
O899      Ni2005   1.910   1_455  S
O899       Ni906   1.919       .  S
O900       Ni901   1.938       .  S
O900       C1994   1.277       .  A
Ni901       O905   1.904       .  S
Ni901       O903   1.906       .  S
Ni901      O2003   1.910       .  S
O902       Ni907   1.933       .  S
C904        O905   1.267       .  A
C904        C976   1.479       .  S
Ni907      O1989   1.905   1_455  S
O909       Ni917   1.920       .  S
O909        C919   1.282   1_556  A
O910       Ni917   1.919       .  S
O911        C921   1.280       .  A
O912       Ni917   1.908       .  S
O912        C922   1.281       .  A
O914       Ni918   1.918       .  S
O915       Ni918   1.912       .  S
O916       Ni918   1.910       .  S
C919        C997   1.484       .  S
C920        C985   1.490       .  S
C921        C949   1.481       .  S
C922        C940   1.489       .  S
O923       Ni931   1.910       .  S
O923        C933   1.279       .  A
O924       Ni931   1.911       .  S
O924        C934   1.281       .  A
O925       Ni931   1.916       .  S
O925        C935   1.281       .  A
O926       Ni931   1.918       .  S
O926        C936   1.282       .  A
O927       Ni932   1.917       .  S
O928       Ni932   1.916       .  S
O929       Ni932   1.922       .  S
O930       Ni932   1.919       .  S
C933        C973   1.491       .  S
C934        C964   1.488       .  S
C935        C937   1.489       .  S
C936        C952   1.481       .  S
C937        C942   1.415       .  A
C938        C939   1.401       .  A
C938        H943   1.085       .  S
C939        C946   1.444       .  S
C940        C941   1.407       .  A
C941        C942   1.398       .  A
C941        H944   1.084       .  S
C942        C945   1.444       .  S
C945        N947   1.157       .  T
C946        N948   1.157       .  T
C949        C954   1.414       .  A
C950        C951   1.401       .  A
C950        H955   1.085       .  S
C951        C958   1.444       .  S
C952        C953   1.404       .  A
C953        C954   1.400       .  A
C953        H956   1.085       .  S
C954        C957   1.444       .  S
C957        N959   1.157       .  T
C958        N960   1.157       .  T
C961        C962   1.402   1_545  A
C962        C963   1.402       .  A
C962        H967   1.085       .  S
C963        C970   1.444       .  S
C964        C965   1.406       .  A
C965        C966   1.397       .  A
C965        H968   1.085       .  S
C966        C969   1.445       .  S
C969        N971   1.157       .  T
C970        N972   1.157       .  T
C973        C978   1.422       .  A
C974        C975   1.398       .  A
C974        H979   1.084       .  S
C975        C982   1.445       .  S
C976        C977   1.401       .  A
C977        C978   1.403       .  A
C977        H980   1.085       .  S
C978        C981   1.444       .  S
C981        N983   1.157       .  T
C982        N984   1.157       .  T
C986        C987   1.398       .  A
C986        H991   1.085       .  S
C987        C994   1.445       .  S
C988        C989   1.401   1_545  A
C989        C990   1.402       .  A
C989        H992   1.084       .  S
C990        C993   1.444       .  S
C993        N995   1.157       .  T
C994        N996   1.157       .  T
C997        C998   1.408   1_554  A
C998        C999   1.402       .  A
C998       H1003   1.084       .  S
C999       C1000   1.408       .  A
C999       C1006   1.445       .  S
C1001      C1002   1.397       .  A
C1001      H1004   1.085       .  S
C1002      C1005   1.445       .  S
C1005      N1007   1.157       .  T
C1006      N1008   1.157       .  T
C1009      C1974   1.483       .  S
C1009      C2114   1.405   1_655  A
C1010      C2113   1.405       .  A
C1010      C1011   1.399       .  A
C1010      H1015   1.085       .  S
C1011      C1564   1.415   1_565  A
C1011      C1018   1.445       .  S
C1012      C1563   1.412       .  A
C1012      C1013   1.405   1_455  A
C1013      C1014   1.398       .  A
C1013      H1016   1.085       .  S
C1014      C1017   1.445       .  S
C1017      N1019   1.157       .  T
C1018      N1020   1.157       .  T
C1021      C2126   1.407   1_665  A
C1022      C2125   1.408       .  A
C1022      C1023   1.398   1_565  A
C1022      H1027   1.085       .  S
C1023      C1576   1.416       .  A
C1023      C1030   1.445       .  S
C1024      C1575   1.413       .  A
C1024      C1025   1.403   1_455  A
C1025      C1026   1.396       .  A
C1025      H1028   1.085       .  S
C1026      C1029   1.445       .  S
C1029      N1031   1.157       .  T
C1030      N1032   1.158       .  T
C1033      C1958   1.488       .  S
C1033      C1034   1.408   1_655  A
C1033      C2142   1.418       .  A
C1034      C1035   1.403       .  A
C1034      H1039   1.084       .  S
C1035      C1036   1.409   1_455  A
C1035      C1042   1.444       .  S
C1036      C2141   1.400       .  A
C1037      C2140   1.400       .  A
C1037      C1038   1.398       .  A
C1037      H1040   1.085       .  S
C1038      C2137   1.419       .  A
C1038      C1041   1.445       .  S
C1041      N1043   1.157       .  T
C1042      N1044   1.157       .  T
C1045      C2150   1.405       .  A
C1045      C1050   1.421       .  A
C1046      C2149   1.406       .  A
C1046      C1047   1.398       .  A
C1046      H1051   1.084       .  S
C1047      C2152   1.414       .  A
C1047      C1054   1.445       .  S
C1048      C2151   1.414       .  A
C1048      C1049   1.403       .  A
C1049      C1050   1.402       .  A
C1049      H1052   1.085       .  S
C1050      C1053   1.445       .  S
C1053      N1055   1.158       .  T
C1054      N1056   1.157       .  T
C1057      C2162   1.406       .  A
C1057      C1062   1.413       .  A
C1058      C2161   1.406   1_455  A
C1058      C1059   1.401       .  A
C1058      H1063   1.085       .  S
C1059      C2164   1.413       .  A
C1059      C1066   1.444       .  S
C1060      C2163   1.412       .  A
C1060      C1061   1.406       .  A
C1061      C1062   1.401       .  A
C1061      H1064   1.085       .  S
C1062      C1065   1.445       .  S
C1065      N1067   1.157       .  T
C1066      N1068   1.157       .  T
C1069      C2174   1.406       .  A
C1069      C1074   1.415       .  A
C1070      C2173   1.406   1_455  A
C1070      C1071   1.399       .  A
C1070      H1075   1.085       .  S
C1071      C2176   1.414   1_455  A
C1071      C1078   1.445       .  S
C1072      C2175   1.415       .  A
C1072      C1073   1.405       .  A
C1073      C1074   1.401       .  A
C1073      H1076   1.085       .  S
C1074      C1077   1.444       .  S
C1077      N1079   1.157       .  T
C1078      N1080   1.157       .  T
C1081      C1082   1.409   1_654  A
C1081      C1914   1.416       .  A
C1082      C1083   1.404       .  A
C1082      H1087   1.085       .  S
C1083      C1084   1.409   1_455  A
C1083      C1090   1.444       .  S
C1084      C1913   1.402   1_556  A
C1085      C1912   1.403       .  A
C1085      C1086   1.402       .  A
C1085      H1088   1.085       .  S
C1086      C1909   1.417       .  A
C1086      C1089   1.445       .  S
C1089      N1091   1.158       .  T
C1090      N1092   1.157       .  T
C1093      C1944   1.490       .  S
C1093      C1094   1.409       .  A
C1093      C2202   1.418       .  A
C1094      C1095   1.403       .  A
C1094      H1099   1.084       .  S
C1095      C1096   1.409       .  A
C1095      C1102   1.443       .  S
C1096      C2201   1.401       .  A
C1097      C2200   1.400       .  A
C1097      C1098   1.398       .  A
C1097      H1100   1.085       .  S
C1098      C2197   1.418       .  A
C1098      C1101   1.444       .  S
C1101      N1103   1.157       .  T
O1105     Ni1389   1.909       .  S
O1106     Ni1113   1.921       .  S
O1107     Ni1113   1.923       .  S
O1107      C1117   1.283       .  A
O1108     Ni1389   1.916       .  S
O1108      C1118   1.282   1_655  A
O1109     Ni1114   1.918       .  S
O1110     Ni1390   1.914       .  S
O1111     Ni1390   1.909       .  S
O1111      C1116   1.280       .  A
O1112     Ni1114   1.919       .  S
O1112      C1115   1.282       .  A
Ni1113     O1381   1.919       .  S
Ni1113     O1384   1.925   1_554  S
Ni1114     O1386   1.919       .  S
Ni1114     O1387   1.919       .  S
C1115      C1357   1.483       .  S
C1117      C1345   1.486       .  S
C1118      C1336   1.490       .  S
O1119     Ni1127   1.912       .  S
O1119      C1129   1.280   1_655  A
O1120     Ni1127   1.910       .  S
O1120      C1130   1.280       .  A
O1121     Ni1127   1.915       .  S
O1121      C1131   1.281       .  A
O1122     Ni1127   1.915       .  S
O1122      C1132   1.281       .  A
O1123     Ni1128   1.921       .  S
O1124     Ni1128   1.919       .  S
O1125     Ni1128   1.918       .  S
O1126     Ni1128   1.921       .  S
C1129      C1321   1.492       .  S
C1131      C1348   1.485       .  S
C1132      C1333   1.491       .  S
O1133     Ni1139   1.923       .  S
O1133      C1706   1.271       .  A
O1134     Ni1157   1.910       .  S
O1134      C1419   1.268       .  A
O1135      H1158   0.967       .  S
O1135     Ni1415   1.917   1_554  S
O1135     Ni1703   1.916   1_554  S
C1136      O1153   1.265   1_455  A
C1136      C1372   1.467       .  S
O1137     Ni1156   1.916       .  S
O1137      C1695   1.269   1_554  A
O1138     Ni1156   1.903       .  S
O1138      C1140   1.271       .  A
Ni1139     O1142   1.930       .  S
Ni1139     O1144   1.900       .  S
Ni1139     O1411   1.917       .  S
C1140      C1300   1.489       .  S
O1141     Ni1157   1.899       .  S
O1141      C1147   1.266       .  A
C1143      O1410   1.270       .  A
C1143      O1689   1.268   1_556  A
C1143      C1264   1.483       .  S
O1144      C1146   1.271       .  A
O1145     Ni1156   1.928       .  S
C1147      C1360   1.471       .  S
H1148      O1149   0.969       .  S
O1149     Ni1709   1.926   1_545  S
O1149     Ni1432   1.918       .  S
O1150     Ni1151   1.941   1_554  S
Ni1151     O1155   1.905   1_556  S
Ni1151     O1153   1.900       .  S
Ni1151     O1687   1.923   1_546  S
O1152     Ni1157   1.941       .  S
C1154      O1685   1.270       .  A
C1154      O1431   1.266   1_565  A
C1154      C1276   1.473       .  S
O1155      C1430   1.267   1_544  A
Ni1156     O1425   1.920   1_554  S
Ni1157     O1701   1.926       .  S
O1159     Ni1165   1.919       .  S
O1159      C1732   1.271       .  A
O1160     Ni1183   1.905       .  S
O1160      C1169   1.266       .  A
O1161      H1184   0.967       .  S
O1161     Ni1165   1.915       .  S
O1161     Ni1729   1.917       .  S
C1162      O1179   1.268   1_455  A
C1162      C1324   1.486       .  S
O1163     Ni1182   1.921       .  S
O1163      C1721   1.270       .  A
O1164     Ni1182   1.902       .  S
O1164      C1166   1.271       .  A
Ni1165     O1168   1.931       .  S
Ni1165     O1170   1.898       .  S
C1166      C1288   1.485       .  S
O1167     Ni1183   1.895       .  S
O1167      C1173   1.265       .  A
C1169      O1715   1.269       .  A
C1169      C1237   1.478       .  S
O1171     Ni1182   1.930       .  S
C1172      O1178   1.276       .  A
C1172      C1297   1.484       .  S
C1173      C1312   1.468       .  S
H1174      O1175   0.967       .  S
O1175     Ni1735   1.921   1_545  S
O1175     Ni1182   1.916       .  S
O1176     Ni1177   1.938       .  S
Ni1177     O1181   1.909       .  S
Ni1177     O1179   1.906       .  S
Ni1177     O1713   1.922   1_545  S
O1178     Ni1183   1.936       .  S
C1180      O1711   1.270       .  A
C1180      O1181   1.269   1_565  A
C1180      C1252   1.485       .  S
Ni1183     O1727   1.925       .  S
O1185     Ni1193   1.916       .  S
O1185      C1195   1.281   1_545  A
O1186     Ni1193   1.917       .  S
O1186      C1472   1.283   1_545  A
O1187     Ni1469   1.916   1_554  S
O1187      C1197   1.280       .  A
O1188     Ni1193   1.916       .  S
O1188      C1198   1.281   1_545  A
O1189     Ni1470   1.918       .  S
O1189      C1750   1.281       .  A
O1190     Ni1194   1.915       .  S
O1190      C1749   1.282       .  A
O1191     Ni1194   1.916   1_556  S
O1191      C1748   1.280       .  A
O1192     Ni1194   1.911       .  S
O1192      C2023   1.281       .  A
Ni1193     O1463   1.914       .  S
Ni1193    Ni2022   2.384   1_545  S
Ni1194     O1465   1.914   1_554  S
Ni1194    Ni2021   2.382   1_554  S
C1195      O2020   1.281       .  A
C1195      C1273   1.485       .  S
C1196      O1462   1.285       .  A
C1196      O1743   1.278   1_546  A
C1196      C1261   1.490       .  S
C1197      O1742   1.284   1_545  A
C1197      C1225   1.493       .  S
C1198      O1741   1.282       .  A
C1198      C1216   1.482       .  S
O1199     Ni1207   1.921       .  S
O1199      C1209   1.281       .  A
O1200     Ni1207   1.921       .  S
O1200      C1210   1.283       .  A
O1201     Ni1207   1.922       .  S
O1201      C1211   1.282       .  A
O1202     Ni1207   1.922       .  S
O1202      C1212   1.283       .  A
O1203     Ni1208   1.916       .  S
O1203      C1764   1.281       .  A
O1204     Ni1208   1.917       .  S
O1204      C1763   1.282       .  A
O1205     Ni1208   1.917       .  S
O1205      C1762   1.280       .  A
O1206     Ni1208   1.913       .  S
O1206      C1761   1.283       .  A
Ni1207    Ni1760   2.384   1_545  S
Ni1208    Ni1759   2.381       .  S
C1209      O1758   1.282   1_545  A
C1209      C1249   1.494       .  S
C1210      O1757   1.280   1_545  A
C1210      C1240   1.484       .  S
C1211      O1756   1.281   1_545  A
C1211      C1213   1.482       .  S
C1212      O1755   1.281   1_545  A
C1212      C1228   1.491       .  S
C1213      C1766   1.405   1_545  A
C1213      C1218   1.413       .  A
C1214      C1765   1.408       .  A
C1214      C1215   1.402       .  A
C1214      H1219   1.084       .  S
C1215      C1768   1.416       .  A
C1215      C1222   1.445       .  S
C1216      C1767   1.413       .  A
C1216      C1217   1.405   1_565  A
C1217      C1218   1.402       .  A
C1217      H1220   1.085       .  S
C1218      C1221   1.444       .  S
C1221      N1223   1.157       .  T
C1222      N1224   1.157       .  T
C1225      C1778   1.405   1_545  A
C1225      C1230   1.418       .  A
C1226      C1777   1.406       .  A
C1226      C1227   1.399       .  A
C1226      H1231   1.085       .  S
C1227      C1780   1.417       .  A
C1227      C1234   1.444       .  S
C1228      C1779   1.416   1_545  A
C1228      C1229   1.406       .  A
C1229      C1230   1.403       .  A
C1229      H1232   1.085       .  S
C1230      C1233   1.444       .  S
C1233      N1235   1.157       .  T
C1234      N1236   1.157       .  T
C1237      C1238   1.403       .  A
C1237      C1794   1.410       .  A
C1238      C1239   1.404       .  A
C1238      H1243   1.084       .  S
C1239      C1792   1.419       .  A
C1239      C1246   1.444       .  S
C1240      C1791   1.417   1_545  A
C1240      C1241   1.406       .  A
C1241      C1242   1.400       .  A
C1241      H1244   1.085       .  S
C1242      C1789   1.408       .  A
C1242      C1245   1.445       .  S
C1245      N1247   1.157       .  T
C1246      N1248   1.158       .  T
C1249      C1802   1.407   1_545  A
C1249      C1254   1.420       .  A
C1250      C1801   1.405       .  A
C1250      C1251   1.394       .  A
C1250      H1255   1.084       .  S
C1251      C1804   1.413       .  A
C1251      C1258   1.446       .  S
C1252      C1803   1.414       .  A
C1252      C1253   1.404   1_565  A
C1253      C1254   1.404       .  A
C1253      H1256   1.085       .  S
C1254      C1257   1.443       .  S
C1257      N1259   1.157       .  T
C1258      N1260   1.157       .  T
C1261      C1538   1.406       .  A
C1261      C1818   1.421   1_546  A
C1262      C1537   1.406       .  A
C1262      C1263   1.397       .  A
C1262      H1267   1.085       .  S
C1263      C2092   1.414       .  A
C1263      C1270   1.445       .  S
C1264      C2091   1.414       .  A
C1264      C1265   1.403   1_556  A
C1265      C1266   1.404       .  A
C1265      H1268   1.085       .  S
C1266      C1813   1.419   1_554  A
C1266      C1269   1.444       .  S
C1269      N1271   1.157       .  T
C1270      N1272   1.157       .  T
C1273      C1274   1.408   1_565  A
C1273      C2106   1.415       .  A
C1274      C1275   1.401       .  A
C1274      H1279   1.085       .  S
C1275      C1276   1.409   1_545  A
C1275      C1282   1.444       .  S
C1276      C2105   1.401       .  A
C1277      C2104   1.399   1_554  A
C1277      C1278   1.397       .  A
C1277      H1280   1.085       .  S
C1278      C2101   1.415       .  A
C1278      C1281   1.445       .  S
C1281      N1283   1.157       .  T
C1282      N1284   1.157       .  T
C1285      C1842   1.413       .  A
C1286      C1287   1.399       .  A
C1286      H1291   1.085       .  S
C1287      C1294   1.445       .  S
C1288      C1289   1.407       .  A
C1289      C1290   1.398   1_545  A
C1289      H1292   1.085       .  S
C1290      C1837   1.415       .  A
C1290      C1293   1.445   1_565  S
C1293      N1295   1.158       .  T
C1294      N1296   1.157       .  T
C1297      C1854   1.416       .  A
C1298      C1299   1.398       .  A
C1298      H1303   1.085       .  S
C1299      C1306   1.444       .  S
C1300      C1301   1.405       .  A
C1301      C1302   1.396   1_545  A
C1301      H1304   1.085   1_545  S
C1302      C1849   1.416       .  A
C1302      C1305   1.445       .  S
C1305      N1307   1.157       .  T
C1306      N1308   1.157       .  T
C1309      C1310   1.407       .  A
C1310      C1311   1.400       .  A
C1310      H1315   1.085       .  S
C1311      C1312   1.409       .  A
C1311      C1318   1.444       .  S
C1313      C1314   1.397       .  A
C1313      H1316   1.085       .  S
C1314      C1317   1.445       .  S
C1317      N1319   1.157       .  T
C1318      N1320   1.157       .  T
C1321      C1326   1.419   1_455  A
C1322      C1323   1.399       .  A
C1322      H1327   1.085       .  S
C1323      C1330   1.445       .  S
C1324      C1325   1.404   1_455  A
C1325      C1326   1.401       .  A
C1325      H1328   1.085       .  S
C1326      C1329   1.444       .  S
C1329      N1331   1.157       .  T
C1330      N1332   1.157       .  T
C1333      C1338   1.416       .  A
C1334      C1335   1.403       .  A
C1334      H1339   1.085       .  S
C1335      C1342   1.445       .  S
C1336      C1337   1.406   1_455  A
C1337      C1338   1.401       .  A
C1337      H1340   1.085       .  S
C1338      C1341   1.445       .  S
C1341      N1343   1.157       .  T
C1342      N1344   1.157       .  T
C1345      C1350   1.413       .  A
C1346      C1347   1.401       .  A
C1346      H1351   1.085       .  S
C1347      C1354   1.445       .  S
C1348      C1349   1.406       .  A
C1349      C1350   1.401       .  A
C1349      H1352   1.085       .  S
C1350      C1353   1.444       .  S
C1353      N1355   1.157       .  T
C1354      N1356   1.157       .  T
C1357      C1358   1.407       .  A
C1358      C1359   1.401       .  A
C1358      H1363   1.084       .  S
C1359      C1360   1.409       .  A
C1359      C1366   1.443       .  S
C1361      C1362   1.399       .  A
C1361      H1364   1.085       .  S
C1362      C1365   1.444       .  S
C1365      N1367   1.157       .  T
C1366      N1368   1.157       .  T
C1369      C1370   1.407   1_556  A
C1370      C1371   1.402       .  A
C1370      H1375   1.084       .  S
C1371      C1372   1.408   1_654  A
C1371      C1378   1.444       .  S
C1373      C1374   1.396       .  A
C1373      H1376   1.085       .  S
C1374      C1377   1.445       .  S
C1377      N1379   1.157       .  T
C1378      N1656   1.157       .  T
N1380      C1654   1.157       .  T
O1382     Ni1389   1.913       .  S
O1383     Ni1389   1.914       .  S
O1383      C1393   1.281   1_655  A
O1384      C1394   1.283       .  A
O1385     Ni1390   1.911   1_556  S
O1387      C1392   1.282       .  A
O1388     Ni1390   1.909       .  S
O1388      C1391   1.280       .  A
C1391      C1633   1.482   1_554  S
C1393      C1621   1.491       .  S
C1394      C1612   1.492       .  S
O1395     Ni1403   1.911       .  S
O1395      C1405   1.279   1_655  A
O1396     Ni1403   1.906       .  S
O1396      C1406   1.279       .  A
O1397     Ni1403   1.910       .  S
O1397      C1407   1.282   1_655  A
O1398     Ni1403   1.914       .  S
O1398      C1408   1.280       .  A
O1399     Ni1404   1.920       .  S
O1400     Ni1404   1.920       .  S
O1401     Ni1404   1.920       .  S
O1402     Ni1404   1.921       .  S
C1405      C1597   1.495       .  S
C1407      C1624   1.490       .  S
C1408      C1609   1.492       .  S
O1409     Ni1415   1.926       .  S
O1409      C1982   1.271       .  A
O1410     Ni1433   1.915       .  S
O1411      H1434   0.967       .  S
O1411     Ni1979   1.920       .  S
C1412      O1429   1.266   1_455  A
C1412      C1648   1.470       .  S
O1413     Ni1432   1.913       .  S
O1413      C1971   1.269       .  A
O1414     Ni1432   1.899       .  S
O1414      C1416   1.270       .  A
Ni1415     O1418   1.926       .  S
Ni1415     O1420   1.903       .  S
C1416      C1576   1.487       .  S
O1417     Ni1433   1.902   1_554  S
O1417      C1423   1.268   1_554  A
C1419      O1965   1.269       .  A
C1419      C1540   1.481       .  S
O1420      C1422   1.271       .  A
O1421     Ni1432   1.928       .  S
C1423      C1636   1.468       .  S
H1424      O1425   0.968       .  S
O1425     Ni1985   1.924   1_545  S
O1426     Ni1427   1.935       .  S
Ni1427     O1431   1.901       .  S
Ni1427     O1429   1.905       .  S
Ni1427     O1963   1.924   1_545  S
O1428     Ni1433   1.931       .  S
C1430      O1961   1.271       .  A
C1430      C1552   1.480       .  S
Ni1433     O1977   1.930       .  S
O1435     Ni1441   1.924       .  S
O1435      C2008   1.271       .  A
O1436     Ni1459   1.903       .  S
O1436      C1445   1.267       .  A
O1437      H1460   0.965       .  S
O1437     Ni1441   1.914       .  S
O1437     Ni2005   1.914       .  S
C1438      O1455   1.268   1_455  A
C1438      C1600   1.486       .  S
O1439     Ni1458   1.920       .  S
O1439      C1997   1.270       .  A
O1440     Ni1458   1.903       .  S
O1440      C1442   1.273       .  A
Ni1441     O1444   1.931       .  S
Ni1441     O1446   1.902       .  S
C1442      C1564   1.484       .  S
O1443     Ni1459   1.898       .  S
O1443      C1449   1.267       .  A
C1445      O1991   1.270       .  A
C1445      C1513   1.478       .  S
O1447     Ni1458   1.927       .  S
C1448      O1454   1.275       .  A
C1448      C1573   1.472       .  S
C1449      C1588   1.470       .  S
H1450      O1451   0.965       .  S
O1451     Ni2011   1.926   1_545  S
O1451     Ni1458   1.917       .  S
O1452     Ni1453   1.940       .  S
Ni1453     O1457   1.908       .  S
Ni1453     O1455   1.914       .  S
Ni1453     O1989   1.919   1_545  S
O1454     Ni1459   1.938       .  S
C1456      O1987   1.271       .  A
C1456      O1457   1.269   1_565  A
C1456      C1528   1.481       .  S
Ni1459     O2003   1.925       .  S
O1461     Ni1469   1.928   1_554  S
O1461      C1471   1.284   1_545  A
O1462     Ni1469   1.925       .  S
O1463      C1473   1.280   1_545  A
O1464     Ni1469   1.912       .  S
O1464      C1474   1.280       .  A
O1465      C2026   1.281       .  A
O1466     Ni1470   1.915       .  S
O1466      C2025   1.282       .  A
O1467     Ni1470   1.920       .  S
O1467      C2024   1.281       .  A
O1468     Ni1470   1.916       .  S
O1468      C1747   1.282       .  A
Ni1469    Ni1746   2.383   1_546  S
Ni1470    Ni1745   2.384       .  S
C1471      O1744   1.279       .  A
C1471      C1549   1.490       .  S
C1472      O2019   1.280       .  A
C1472      C1537   1.490   1_565  S
C1473      O2018   1.282       .  A
C1473      C1501   1.489       .  S
C1474      O2017   1.283   1_545  A
C1474      C1492   1.485       .  S
O1475     Ni1483   1.913       .  S
O1475      C1485   1.279   1_545  A
O1476     Ni1483   1.911       .  S
O1476      C1486   1.281   1_545  A
O1477     Ni1483   1.918       .  S
O1477      C1487   1.281       .  A
O1478     Ni1483   1.917       .  S
O1478      C1488   1.282   1_545  A
O1479     Ni1484   1.908       .  S
O1479      C2040   1.279       .  A
O1480     Ni1484   1.907       .  S
O1480      C2039   1.280       .  A
O1481     Ni1484   1.921       .  S
O1481      C2038   1.282       .  A
O1482     Ni1484   1.920       .  S
O1482      C2037   1.284       .  A
Ni1483    Ni2036   2.383   1_545  S
Ni1484    Ni2035   2.382       .  S
C1485      O2034   1.283       .  A
C1485      C1525   1.492       .  S
C1486      O2033   1.282       .  A
C1486      C1516   1.485   1_565  S
C1487      O2032   1.281   1_545  A
C1487      C1489   1.486       .  S
C1488      O2031   1.281       .  A
C1488      C1504   1.489       .  S
C1489      C2042   1.406   1_545  A
C1489      C1494   1.415       .  A
C1490      C2041   1.407       .  A
C1490      C1491   1.398       .  A
C1490      H1495   1.085       .  S
C1491      C2044   1.416       .  A
C1491      C1498   1.445       .  S
C1492      C2043   1.413   1_545  A
C1492      C1493   1.405       .  A
C1493      C1494   1.401       .  A
C1493      H1496   1.085       .  S
C1494      C1497   1.444       .  S
C1497      N1499   1.157       .  T
C1498      N1500   1.158       .  T
C1501      C2054   1.405       .  A
C1501      C1506   1.417   1_565  A
C1502      C2053   1.405       .  A
C1502      C1503   1.399       .  A
C1502      H1507   1.085       .  S
C1503      C2056   1.416       .  A
C1503      C1510   1.445       .  S
C1504      C2055   1.416       .  A
C1504      C1505   1.406   1_565  A
C1505      C1506   1.401       .  A
C1505      H1508   1.085       .  S
C1506      C1509   1.445       .  S
C1509      N1511   1.157       .  T
C1510      N1512   1.157       .  T
C1513      C1514   1.403       .  A
C1513      C2070   1.410       .  A
C1514      C1515   1.403       .  A
C1514      H1519   1.085       .  S
C1515      C2068   1.417       .  A
C1515      C1522   1.444       .  S
C1516      C2067   1.416   1_545  A
C1516      C1517   1.407       .  A
C1517      C1518   1.398       .  A
C1517      H1520   1.085       .  S
C1518      C2065   1.410       .  A
C1518      C1521   1.445       .  S
C1521      N1523   1.157       .  T
C1522      N1524   1.157       .  T
C1525      C2078   1.406       .  A
C1525      C1530   1.421   1_565  A
C1526      C2077   1.406       .  A
C1526      C1527   1.396       .  A
C1526      H1531   1.084       .  S
C1527      C2080   1.411       .  A
C1527      C1534   1.445       .  S
C1528      C2079   1.413       .  A
C1528      C1529   1.402   1_565  A
C1529      C1530   1.403       .  A
C1529      H1532   1.085       .  S
C1530      C1533   1.444       .  S
C1533      N1535   1.157       .  T
C1534      N1536   1.157       .  T
C1537      C2094   1.420   1_545  A
C1538      C1539   1.399       .  A
C1538      H1543   1.085       .  S
C1539      C1816   1.413       .  A
C1539      C1546   1.445       .  S
C1540      C1815   1.411       .  A
C1540      C1541   1.404       .  A
C1541      C1542   1.405       .  A
C1541      H1544   1.085       .  S
C1542      C2089   1.418       .  A
C1542      C1545   1.444       .  S
C1545      N1547   1.157       .  T
C1546      N1548   1.157       .  T
C1549      C1550   1.407   1_564  A
C1549      C1830   1.419       .  A
C1550      C1551   1.403       .  A
C1550      H1555   1.084       .  S
C1551      C1552   1.411   1_545  A
C1551      C1558   1.444       .  S
C1552      C1829   1.401   1_556  A
C1553      C1828   1.401       .  A
C1553      C1554   1.399       .  A
C1553      H1556   1.085       .  S
C1554      C1825   1.415       .  A
C1554      C1557   1.444       .  S
C1557      N1559   1.157       .  T
C1558      N1560   1.157       .  T
C1561      C2118   1.412       .  A
C1562      C1563   1.396       .  A
C1562      H1567   1.085       .  S
C1563      C1570   1.445       .  S
C1564      C1565   1.406       .  A
C1565      C1566   1.399       .  A
C1565      H1568   1.085       .  S
C1566      C2113   1.415   1_545  A
C1566      C1569   1.445       .  S
C1569      N1571   1.157       .  T
C1570      N1572   1.157       .  T
C1573      C2130   1.411       .  A
C1574      C1575   1.401       .  A
C1574      H1579   1.085       .  S
C1575      C1582   1.445       .  S
C1576      C1577   1.407       .  A
C1577      C1578   1.396   1_545  A
C1577      H1580   1.085       .  S
C1578      C2125   1.415       .  A
C1578      C1581   1.445       .  S
C1581      N1583   1.157       .  T
C1582      N1584   1.158       .  T
C1585      C1586   1.408       .  A
C1586      C1587   1.402       .  A
C1586      H1591   1.084       .  S
C1587      C1588   1.408       .  A
C1587      C1594   1.444       .  S
C1589      C1590   1.397       .  A
C1589      H1592   1.085       .  S
C1590      C1593   1.445       .  S
C1593      N1595   1.157       .  T
C1594      N1596   1.157       .  T
C1597      C1602   1.422   1_455  A
C1598      C1599   1.398       .  A
C1598      H1603   1.084       .  S
C1599      C1606   1.446       .  S
C1600      C1601   1.403   1_455  A
C1601      C1602   1.404       .  A
C1601      H1604   1.085       .  S
C1602      C1605   1.444       .  S
C1605      N1607   1.157       .  T
C1606      N1608   1.157       .  T
C1609      C1614   1.418       .  A
C1610      C1611   1.399       .  A
C1610      H1615   1.085       .  S
C1611      C1618   1.445       .  S
C1612      C1613   1.407       .  A
C1613      C1614   1.404       .  A
C1613      H1616   1.084       .  S
C1614      C1617   1.445       .  S
C1617      N1619   1.158       .  T
C1618      N1620   1.157       .  T
C1621      C1626   1.415   1_455  A
C1622      C1623   1.403       .  A
C1622      H1627   1.085       .  S
C1623      C1630   1.444       .  S
C1624      C1625   1.405   1_455  A
C1625      C1626   1.396       .  A
C1625      H1628   1.085       .  S
C1626      C1629   1.444       .  S
C1629      N1631   1.157       .  T
C1630      N1632   1.157       .  T
C1633      C1634   1.409       .  A
C1634      C1635   1.400       .  A
C1634      H1639   1.085       .  S
C1635      C1636   1.407       .  A
C1635      C1642   1.444       .  S
C1637      C1638   1.396       .  A
C1637      H1640   1.085       .  S
C1638      C1641   1.445       .  S
C1641      N1643   1.157       .  T
C1642      N1644   1.157       .  T
C1645      C1646   1.408   1_455  A
C1646      C1647   1.402       .  A
C1646      H1651   1.085       .  S
C1647      C1648   1.409   1_655  A
C1647      C1654   1.444       .  S
C1649      C1650   1.397       .  A
C1649      H1652   1.085       .  S
C1650      C1653   1.444       .  S
C1653      N1655   1.157       .  T
O1657     Ni1941   1.921       .  S
O1658     Ni1665   1.921   1_554  S
O1659     Ni1665   1.911   1_554  S
O1659      C1669   1.279   1_655  A
O1660     Ni1941   1.922       .  S
O1660      C1670   1.283       .  A
O1661     Ni1666   1.916       .  S
O1662     Ni1942   1.920       .  S
O1663     Ni1942   1.915       .  S
O1663      C1668   1.281       .  A
O1664     Ni1666   1.918       .  S
O1664      C1667   1.282       .  A
Ni1665     O1933   1.921       .  S
Ni1665     O1936   1.913       .  S
Ni1666     O1938   1.915       .  S
Ni1666     O1939   1.916       .  S
C1667      C1909   1.491       .  S
C1669      C1897   1.488       .  S
C1670      C1888   1.494   1_655  S
O1671     Ni1679   1.910       .  S
O1671      C1681   1.279   1_655  A
O1672     Ni1679   1.908       .  S
O1672      C1682   1.279       .  A
O1673     Ni1679   1.919       .  S
O1673      C1683   1.282   1_655  A
O1674     Ni1679   1.919       .  S
O1674      C1684   1.281       .  A
O1675     Ni1680   1.918       .  S
O1676     Ni1680   1.917       .  S
O1677     Ni1680   1.925       .  S
O1678     Ni1680   1.925       .  S
C1681      C1873   1.495       .  S
C1683      C1900   1.489       .  S
C1684      C1885   1.494       .  S
O1685     Ni1691   1.923       .  S
O1686     Ni1709   1.912       .  S
O1686      C1971   1.270   1_565  A
O1687      H1710   0.968       .  S
O1687     Ni1967   1.920   1_554  S
C1688      O1705   1.266   1_454  A
C1688      C1924   1.473       .  S
O1689     Ni1708   1.912       .  S
O1690     Ni1708   1.900       .  S
O1690      C1692   1.271       .  A
Ni1691     O1694   1.929       .  S
Ni1691     O1696   1.905       .  S
Ni1691     O1963   1.920       .  S
C1692      C1852   1.482       .  S
O1693     Ni1709   1.913       .  S
O1693      C1699   1.270       .  A
C1695      O1962   1.270   1_545  A
C1695      C1816   1.478       .  S
O1696      C1698   1.272       .  A
O1697     Ni1708   1.928       .  S
C1699      C1912   1.479       .  S
H1700      O1701   0.968       .  S
O1701     Ni1984   1.918       .  S
O1702     Ni1703   1.936   1_554  S
Ni1703     O1707   1.897   1_556  S
Ni1703     O1705   1.907       .  S
O1704     Ni1709   1.931       .  S
C1706      O1983   1.267       .  A
C1706      C1828   1.473       .  S
O1707      C1982   1.265   1_554  A
Ni1708     O1977   1.917   1_554  S
O1711     Ni1717   1.918       .  S
O1712     Ni1735   1.901       .  S
O1712      C1721   1.266   1_565  A
O1713      H1736   0.967       .  S
O1713     Ni1717   1.917       .  S
C1714      O1731   1.270   1_455  A
C1714      C1876   1.489       .  S
O1715     Ni1734   1.915       .  S
O1716     Ni1734   1.900       .  S
O1716      C1718   1.271       .  A
Ni1717     O1720   1.931       .  S
Ni1717     O1722   1.902       .  S
C1718      C1840   1.478       .  S
O1719     Ni1735   1.906       .  S
O1719      C1725   1.266       .  A
C1721      C1789   1.471       .  S
O1723     Ni1734   1.927       .  S
C1724      O1730   1.279       .  A
C1724      C1849   1.489       .  S
C1725      C1864   1.478       .  S
H1726      O1727   0.967       .  S
O1727     Ni1734   1.918       .  S
O1728     Ni1729   1.940       .  S
Ni1729     O1733   1.907       .  S
Ni1729     O1731   1.915       .  S
O1730     Ni1735   1.944       .  S
C1732      O1733   1.269       .  A
C1732      C1804   1.480       .  S
O1737     Ni1745   1.917       .  S
O1737      C1747   1.281       .  A
O1738     Ni1745   1.916       .  S
O1738      C2024   1.282       .  A
O1739     Ni2021   1.913   1_554  S
O1739      C1749   1.280       .  A
O1740     Ni1745   1.913       .  S
O1740      C1750   1.282       .  A
O1741     Ni2022   1.920       .  S
O1742     Ni1746   1.924       .  S
O1743     Ni1746   1.909       .  S
O1744     Ni1746   1.908       .  S
Ni1745     O2015   1.913       .  S
Ni1746     O2017   1.922   1_554  S
C1747      C1825   1.484       .  S
C1748      O2014   1.283       .  A
C1748      C1813   1.492       .  S
C1749      C1777   1.491       .  S
C1750      C1768   1.491       .  S
O1751     Ni1759   1.913       .  S
O1751      C1761   1.279       .  A
O1752     Ni1759   1.912       .  S
O1752      C1762   1.282       .  A
O1753     Ni1759   1.916       .  S
O1753      C1763   1.281       .  A
O1754     Ni1759   1.916       .  S
O1754      C1764   1.282       .  A
O1755     Ni1760   1.916       .  S
O1756     Ni1760   1.916       .  S
O1757     Ni1760   1.911       .  S
O1758     Ni1760   1.913       .  S
C1761      C1801   1.490       .  S
C1762      C1792   1.489       .  S
C1763      C1765   1.493       .  S
C1764      C1780   1.493       .  S
C1765      C1770   1.417       .  A
C1766      C1767   1.401       .  A
C1766      H1771   1.085       .  S
C1767      C1774   1.444       .  S
C1768      C1769   1.406       .  A
C1769      C1770   1.399       .  A
C1769      H1772   1.085       .  S
C1770      C1773   1.444       .  S
C1773      N1775   1.157       .  T
C1774      N1776   1.157       .  T
C1777      C1782   1.417       .  A
C1778      C1779   1.401       .  A
C1778      H1783   1.085       .  S
C1779      C1786   1.444       .  S
C1780      C1781   1.407       .  A
C1781      C1782   1.401       .  A
C1781      H1784   1.084       .  S
C1782      C1785   1.445       .  S
C1785      N1787   1.158       .  T
C1786      N1788   1.157       .  T
C1789      C1790   1.400   1_545  A
C1790      C1791   1.401       .  A
C1790      H1795   1.085       .  S
C1791      C1798   1.444       .  S
C1792      C1793   1.406       .  A
C1793      C1794   1.395       .  A
C1793      H1796   1.084       .  S
C1794      C1797   1.445       .  S
C1797      N1799   1.157       .  T
C1798      N1800   1.157       .  T
C1801      C1806   1.421       .  A
C1802      C1803   1.396       .  A
C1802      H1807   1.084       .  S
C1803      C1810   1.446       .  S
C1804      C1805   1.403       .  A
C1805      C1806   1.404       .  A
C1805      H1808   1.085       .  S
C1806      C1809   1.444       .  S
C1809      N1811   1.157       .  T
C1810      N1812   1.157       .  T
C1813      C2090   1.405       .  A
C1814      C2089   1.405       .  A
C1814      C1815   1.398       .  A
C1814      H1819   1.085       .  S
C1815      C1822   1.444       .  S
C1816      C1817   1.400   1_546  A
C1817      C1818   1.401       .  A
C1817      H1820   1.085       .  S
C1818      C1821   1.444       .  S
C1821      N1823   1.157       .  T
C1822      N1824   1.157       .  T
C1825      C1826   1.407       .  A
C1826      C1827   1.402       .  A
C1826      H1831   1.085       .  S
C1827      C1828   1.410       .  A
C1827      C1834   1.444       .  S
C1829      C1830   1.400       .  A
C1829      H1832   1.085       .  S
C1830      C1833   1.445       .  S
C1833      N1835   1.157       .  T
C1834      N1836   1.157       .  T
C1838      C1839   1.398       .  A
C1838      H1843   1.085       .  S
C1839      C1846   1.445       .  S
C1840      C1841   1.403       .  A
C1841      C1842   1.396       .  A
C1841      H1844   1.085       .  S
C1842      C1845   1.444       .  S
C1845      N1847   1.157       .  T
C1846      N1848   1.157       .  T
C1850      C1851   1.401       .  A
C1850      H1855   1.085       .  S
C1851      C1858   1.445       .  S
C1852      C1853   1.406       .  A
C1853      C1854   1.396       .  A
C1853      H1856   1.085       .  S
C1854      C1857   1.445       .  S
C1857      N1859   1.157       .  T
C1858      N1860   1.158       .  T
C1861      C1862   1.409       .  A
C1862      C1863   1.403       .  A
C1862      H1867   1.084       .  S
C1863      C1864   1.409       .  A
C1863      C1870   1.443       .  S
C1865      C1866   1.397       .  A
C1865      H1868   1.085       .  S
C1866      C1869   1.445       .  S
C1869      N1871   1.157       .  T
C1870      N1872   1.157       .  T
C1873      C1878   1.421   1_455  A
C1874      C1875   1.400       .  A
C1874      H1879   1.084       .  S
C1875      C1882   1.445       .  S
C1876      C1877   1.403   1_455  A
C1877      C1878   1.404       .  A
C1877      H1880   1.085       .  S
C1878      C1881   1.444       .  S
C1881      N1883   1.157       .  T
C1882      N1884   1.157       .  T
C1885      C1890   1.417       .  A
C1886      C1887   1.402       .  A
C1886      H1891   1.085       .  S
C1887      C1894   1.445       .  S
C1888      C1889   1.407   1_455  A
C1889      C1890   1.402       .  A
C1889      H1892   1.085       .  S
C1890      C1893   1.444       .  S
C1893      N1895   1.157       .  T
C1894      N1896   1.157       .  T
C1897      C1902   1.417   1_455  A
C1898      C1899   1.400       .  A
C1898      H1903   1.085       .  S
C1899      C1906   1.444       .  S
C1900      C1901   1.406   1_455  A
C1901      C1902   1.401       .  A
C1901      H1904   1.085       .  S
C1902      C1905   1.445       .  S
C1905      N1907   1.157       .  T
C1906      N1908   1.157       .  T
C1909      C1910   1.408       .  A
C1910      C1911   1.403       .  A
C1910      H1915   1.084       .  S
C1911      C1912   1.408       .  A
C1911      C1918   1.443       .  S
C1913      C1914   1.400       .  A
C1913      H1916   1.085       .  S
C1914      C1917   1.445       .  S
C1917      N1919   1.157       .  T
C1918      N1920   1.157       .  T
C1921      C1922   1.409   1_455  A
C1922      C1923   1.403       .  A
C1922      H1927   1.084       .  S
C1923      C1924   1.409   1_655  A
C1923      C1930   1.444       .  S
C1925      C1926   1.398       .  A
C1925      H1928   1.085       .  S
C1926      C1929   1.444       .  S
C1929      N1931   1.157       .  T
C1930      N2208   1.157       .  T
N1932      C2206   1.157       .  T
O1934     Ni1941   1.921       .  S
O1935     Ni1941   1.919       .  S
O1935      C1945   1.282       .  A
O1936      C1946   1.281   1_655  A
O1937     Ni1942   1.922   1_556  S
O1939      C1944   1.281       .  A
O1940     Ni1942   1.917       .  S
O1940      C1943   1.281   1_554  A
C1943      C2185   1.491       .  S
C1945      C2173   1.485       .  S
C1946      C2164   1.486       .  S
O1947     Ni1955   1.910       .  S
O1947      C1957   1.279   1_655  A
O1948     Ni1955   1.910       .  S
O1948      C1958   1.280       .  A
O1949     Ni1955   1.917       .  S
O1949      C1959   1.282       .  A
O1950     Ni1955   1.918       .  S
O1950      C1960   1.282       .  A
O1951     Ni1956   1.913       .  S
O1952     Ni1956   1.914       .  S
O1953     Ni1956   1.923       .  S
O1954     Ni1956   1.921       .  S
C1957      C2149   1.492       .  S
C1959      C2176   1.485       .  S
C1960      C2161   1.485       .  S
O1961     Ni1967   1.926       .  S
O1962     Ni1985   1.909       .  S
O1963      H1986   0.965       .  S
C1964      O1981   1.267   1_455  A
C1964      C2200   1.475       .  S
O1965     Ni1984   1.917       .  S
O1966     Ni1984   1.900       .  S
O1966      C1968   1.271       .  A
Ni1967     O1970   1.931       .  S
Ni1967     O1972   1.903       .  S
C1968      C2128   1.471       .  S
O1969     Ni1985   1.912   1_554  S
O1969      C1975   1.269   1_554  A
C1971      C2092   1.480       .  S
O1972      C1974   1.271       .  A
O1973     Ni1984   1.928       .  S
C1975      C2188   1.479       .  S
H1976      O1977   0.964       .  S
O1978     Ni1979   1.938       .  S
Ni1979     O1983   1.903       .  S
Ni1979     O1981   1.908       .  S
O1980     Ni1985   1.938       .  S
C1982      C2104   1.470       .  S
O1987     Ni1993   1.921       .  S
O1988     Ni2011   1.903       .  S
O1988      C1997   1.267   1_565  A
O1989      H2012   0.967       .  S
O1989     Ni1993   1.913       .  S
C1990      O2007   1.267   1_455  A
C1990      C2152   1.483       .  S
O1991     Ni2010   1.918       .  S
O1992     Ni2010   1.899       .  S
O1992      C1994   1.271       .  A
Ni1993     O1996   1.932       .  S
Ni1993     O1998   1.901       .  S
C1994      C2116   1.476       .  S
O1995     Ni2011   1.905       .  S
O1995      C2001   1.268       .  A
C1997      C2065   1.475       .  S
O1999     Ni2010   1.929       .  S
C2000      O2006   1.276       .  A
C2000      C2125   1.488       .  S
C2001      C2140   1.476       .  S
H2002      O2003   0.966       .  S
O2003     Ni2010   1.919       .  S
O2004     Ni2005   1.938       .  S
Ni2005     O2009   1.904       .  S
Ni2005     O2007   1.906       .  S
O2006     Ni2011   1.935       .  S
C2008      O2009   1.267       .  A
C2008      C2080   1.478       .  S
O2013     Ni2021   1.920       .  S
O2013      C2023   1.281   1_556  A
O2014     Ni2021   1.919       .  S
O2015      C2025   1.280       .  A
O2016     Ni2021   1.909       .  S
O2016      C2026   1.281       .  A
O2018     Ni2022   1.918       .  S
O2019     Ni2022   1.914       .  S
O2020     Ni2022   1.917       .  S
C2023      C2101   1.483       .  S
C2024      C2089   1.490       .  S
C2025      C2053   1.485       .  S
C2026      C2044   1.487       .  S
O2027     Ni2035   1.909       .  S
O2027      C2037   1.278       .  A
O2028     Ni2035   1.907       .  S
O2028      C2038   1.280       .  A
O2029     Ni2035   1.916       .  S
O2029      C2039   1.281       .  A
O2030     Ni2035   1.917       .  S
O2030      C2040   1.283       .  A
O2031     Ni2036   1.916       .  S
O2032     Ni2036   1.916       .  S
O2033     Ni2036   1.920       .  S
O2034     Ni2036   1.917       .  S
C2037      C2077   1.491       .  S
C2038      C2068   1.488       .  S
C2039      C2041   1.487       .  S
C2040      C2056   1.484       .  S
C2041      C2046   1.415       .  A
C2042      C2043   1.401       .  A
C2042      H2047   1.085       .  S
C2043      C2050   1.444       .  S
C2044      C2045   1.407       .  A
C2045      C2046   1.398       .  A
C2045      H2048   1.085       .  S
C2046      C2049   1.444       .  S
C2049      N2051   1.157       .  T
C2050      N2052   1.157       .  T
C2053      C2058   1.415       .  A
C2054      C2055   1.401       .  A
C2054      H2059   1.085       .  S
C2055      C2062   1.444       .  S
C2056      C2057   1.404       .  A
C2057      C2058   1.398       .  A
C2057      H2060   1.085       .  S
C2058      C2061   1.444       .  S
C2061      N2063   1.157       .  T
C2062      N2064   1.157       .  T
C2065      C2066   1.402   1_545  A
C2066      C2067   1.401       .  A
C2066      H2071   1.085       .  S
C2067      C2074   1.444       .  S
C2068      C2069   1.407       .  A
C2069      C2070   1.396       .  A
C2069      H2072   1.085       .  S
C2070      C2073   1.445       .  S
C2073      N2075   1.157       .  T
C2074      N2076   1.157       .  T
C2077      C2082   1.422       .  A
C2078      C2079   1.397       .  A
C2078      H2083   1.084       .  S
C2079      C2086   1.445       .  S
C2080      C2081   1.401       .  A
C2081      C2082   1.403       .  A
C2081      H2084   1.085       .  S
C2082      C2085   1.444       .  S
C2085      N2087   1.158       .  T
C2086      N2088   1.157       .  T
C2090      C2091   1.398       .  A
C2090      H2095   1.085       .  S
C2091      C2098   1.445       .  S
C2092      C2093   1.401   1_545  A
C2093      C2094   1.402       .  A
C2093      H2096   1.084       .  S
C2094      C2097   1.444       .  S
C2097      N2099   1.157       .  T
C2098      N2100   1.157       .  T
C2101      C2102   1.408   1_554  A
C2102      C2103   1.403       .  A
C2102      H2107   1.084       .  S
C2103      C2104   1.408       .  A
C2103      C2110   1.445       .  S
C2105      C2106   1.399       .  A
C2105      H2108   1.085       .  S
C2106      C2109   1.444       .  S
C2109      N2111   1.157       .  T
C2110      N2112   1.157       .  T
C2114      C2115   1.399       .  A
C2114      H2119   1.085       .  S
C2115      C2122   1.445       .  S
C2116      C2117   1.405       .  A
C2117      C2118   1.397       .  A
C2117      H2120   1.085       .  S
C2118      C2121   1.444       .  S
C2121      N2123   1.157       .  T
C2122      N2124   1.157       .  T
C2126      C2127   1.397       .  A
C2126      H2131   1.085       .  S
C2127      C2134   1.445       .  S
C2128      C2129   1.402       .  A
C2129      C2130   1.396       .  A
C2129      H2132   1.085       .  S
C2130      C2133   1.445       .  S
C2133      N2135   1.157       .  T
C2134      N2136   1.158       .  T
C2137      C2138   1.408       .  A
C2138      C2139   1.403       .  A
C2138      H2143   1.084       .  S
C2139      C2140   1.409       .  A
C2139      C2146   1.443       .  S
C2141      C2142   1.398       .  A
C2141      H2144   1.085       .  S
C2142      C2145   1.445       .  S
C2145      N2147   1.157       .  T
C2146      N2148   1.157       .  T
C2149      C2154   1.421   1_455  A
C2150      C2151   1.397       .  A
C2150      H2155   1.084       .  S
C2151      C2158   1.445       .  S
C2152      C2153   1.402   1_455  A
C2153      C2154   1.402       .  A
C2153      H2156   1.085       .  S
C2154      C2157   1.444       .  S
C2157      N2159   1.157       .  T
C2158      N2160   1.157       .  T
C2161      C2166   1.414       .  A
C2162      C2163   1.401       .  A
C2162      H2167   1.085       .  S
C2163      C2170   1.444       .  S
C2164      C2165   1.407   1_455  A
C2165      C2166   1.400       .  A
C2165      H2168   1.085       .  S
C2166      C2169   1.445       .  S
C2169      N2171   1.157       .  T
C2170      N2172   1.157       .  T
C2173      C2178   1.414       .  A
C2174      C2175   1.400       .  A
C2174      H2179   1.085       .  S
C2175      C2182   1.445       .  S
C2176      C2177   1.406       .  A
C2177      C2178   1.401       .  A
C2177      H2180   1.085       .  S
C2178      C2181   1.444       .  S
C2181      N2183   1.157       .  T
C2182      N2184   1.157       .  T
C2185      C2186   1.409       .  A
C2186      C2187   1.404       .  A
C2186      H2191   1.084       .  S
C2187      C2188   1.409       .  A
C2187      C2194   1.443       .  S
C2189      C2190   1.402       .  A
C2189      H2192   1.085       .  S
C2190      C2193   1.445       .  S
C2193      N2195   1.158       .  T
C2194      N2196   1.157       .  T
C2197      C2198   1.410   1_455  A
C2198      C2199   1.404       .  A
C2198      H2203   1.084       .  S
C2199      C2200   1.409   1_655  A
C2199      C2206   1.444       .  S
C2201      C2202   1.399       .  A
C2201      H2204   1.085       .  S
C2202      C2205   1.444       .  S
C2205      N2207   1.157       .  T
