geometry optimzed in LAMMPS
_audit_creation_date              2020-11-30 
_audit_creation_method            'lammps2cif' 
_symmetry_space_group_name_H-M    'P1' 
_symmetry_Int_Tables_number       1 
_symmetry_cell_setting            triclinic 
loop_ 
_symmetry_equiv_pos_as_xyz 
  x,y,z 
_cell_length_a                    52.3476481 
_cell_length_b                    52.37159875131381 
_cell_length_c                    37.63844278432028 
_cell_angle_alpha                 90.03829741802355 
_cell_angle_beta                  90.0173202232713 
_cell_angle_gamma                 120.20826615955157 
loop_ 
_atom_site_label 
_atom_site_type_symbol 
_atom_site_fract_x 
_atom_site_fract_y 
_atom_site_fract_z 
_atom_site_charge 
C1          C  0.05371251  0.38656251  0.16698742     0.03300
C2          C  0.05214286  0.36126949  0.18109771    -0.12900
C3          C  0.02540953  0.33424264  0.18128878     0.00800
C4          C  0.50007522  0.33267536  0.16501249    -0.11400
C5          C  0.50178664  0.35829135  0.14992668     0.03300
C6          C  0.02876474  0.38508969  0.15181470    -0.10800
H7          H  0.07177977  0.36317834  0.19334514     0.08900
H8          H  0.47946000  0.31181745  0.16414935     0.06400
H9          H  0.03085499  0.40493623  0.14002535     0.06200
C10         C  0.16355927  0.49639544  0.16466023     0.03300
C11         C  0.18863991  0.99807146  0.17965802    -0.12900
C12         C  0.21542431  0.02496472  0.18123896     0.00800
C13         C  0.21699436  0.05043611  0.16587628    -0.11400
C14         C  0.19156894  0.04862968  0.14995312     0.03300
C15         C  0.16492607  0.02152492  0.15034468    -0.10800
H16         H  0.18666891  0.47831485  0.19155258     0.08900
H17         H  0.23762320  0.07129421  0.16632155     0.06400
H18         H  0.14518055  0.01944056  0.13819651     0.06200
C19         C  0.49606872  0.16385101  0.33494400     0.03300
C20         C  0.02125475  0.16552128  0.34991863    -0.12900
C21         C  0.04841243  0.19215555  0.34985458     0.00800
C22         C  0.05015088  0.21721391  0.33304165    -0.11400
C23         C  0.02465708  0.21530949  0.31712999     0.03300
C24         C  0.99767558  0.18856504  0.31926544    -0.10800
H25         H  0.01924823  0.14602077  0.36261690     0.08900
H26         H  0.07104095  0.23779145  0.33213377     0.06400
H27         H  0.47794987  0.18643930  0.30683254     0.06200
C28         C  0.38640419  0.05324737  0.33374499     0.03300
C29         C  0.38501898  0.02809987  0.34810933    -0.12900
C30         C  0.35851333  0.50082623  0.34795902     0.00800
C31         C  0.33328790  0.49882874  0.33111668    -0.11400
C32         C  0.33489859  0.02426412  0.31546872     0.03300
C33         C  0.36151145  0.05134411  0.31780664    -0.10800
H34         H  0.40459885  0.03033182  0.36090604     0.08900
H35         H  0.31278023  0.47786956  0.33024294     0.06400
H36         H  0.36346937  0.07110963  0.30595135     0.06200
O37         O  0.28883465  0.49964258  0.28308055    -0.71600
O38         O  0.23738130  0.00155398  0.21300361    -0.71900
O39         O  0.28879915  0.00086446  0.21240165    -0.71700
O40         O  0.23693343  0.50041242  0.28365352    -0.71700
O41         O  0.26168124  0.04834695  0.28347014    -0.71700
O42         O  0.31353853  0.04880759  0.21242413    -0.71700
O43         O  0.26170207  0.04949027  0.21287243    -0.71600
O44         O  0.31305353  0.04757107  0.28307382    -0.71800
V45         V  0.26344230  0.50154326  0.24793722     1.35200
V46         V  0.28702293  0.04760536  0.24803977     1.35200
C47         C  0.31075720  0.02354652  0.29376258     0.77600
C48         C  0.23970592  0.02559539  0.20237377     0.77700
C49         C  0.31090233  0.02471817  0.20173846     0.77500
C50         C  0.23966082  0.02456047  0.29436409     0.77500
O51         O  0.04783637  0.25957968  0.21295942    -0.71600
O52         O  0.05017789  0.31309023  0.28310206    -0.71900
O53         O  0.04955546  0.26059183  0.28363392    -0.71700
O54         O  0.04841056  0.31158853  0.21246637    -0.71700
O55         O  0.50043606  0.28798453  0.21237571    -0.71700
O56         O  0.00160399  0.23708296  0.28402266    -0.71700
O57         O  0.00222672  0.28916387  0.28342294    -0.71600
O58         O  0.49988614  0.23544591  0.21287664    -0.71800
V59         V  0.04805214  0.28573236  0.24792929     1.35200
V60         V  0.50199914  0.26285114  0.24799064     1.35200
C61         C  0.02373955  0.23756770  0.20265924     0.77600
C62         C  0.02636232  0.31102087  0.29399345     0.77700
C63         C  0.02552704  0.23916708  0.29480816     0.77500
C64         C  0.02449213  0.30969292  0.20204441     0.77500
C65         C  0.32980567  0.02547235  0.49643563     0.03300
C66         C  0.33106989  0.00169240  0.48185267    -0.12900
C67         C  0.35770872  0.00135585  0.48130168     0.00800
C68         C  0.38299961  0.02467977  0.99697038    -0.11400
C69         C  0.38154195  0.04847035  0.01273042     0.03300
C70         C  0.35482994  0.04860260  0.01133772    -0.10800
H71         H  0.31126637  0.48387331  0.46986083     0.08900
H72         H  0.40357775  0.02446618  0.99734300     0.06400
H73         H  0.35296972  0.06637022  0.02349730     0.06200
C74         C  0.21950039  0.02383518  0.50402246     0.03300
C75         C  0.19480235  0.00054162  0.48799124    -0.12900
C76         C  0.16817478  0.00074853  0.48520868     0.00800
C77         C  0.16630927  0.02451439  0.50055399    -0.11400
C78         C  0.19163883  0.04838750  0.01750550     0.03300
C79         C  0.21820622  0.04790826  0.01798321    -0.10800
H80         H  0.19701620  0.48288083  0.47613794     0.08900
H81         H  0.14580697  0.02482788  0.49914906     0.06400
H82         H  0.23781399  0.06563250  0.03043926     0.06200
C83         C  0.02487660  0.21972955  0.99862347     0.03300
C84         C  0.04870309  0.21847342  0.48385209    -0.12900
C85         C  0.04906339  0.19187043  0.48316433     0.00800
C86         C  0.02543215  0.16639173  0.99921038    -0.11400
C87         C  0.00149333  0.16777279  0.01476270     0.03300
C88         C  0.00136366  0.19449685  0.01345258    -0.10800
H89         H  0.06640279  0.23822828  0.47167231     0.08900
H90         H  0.02562382  0.14581041  0.99937173     0.06400
H91         H  0.48364217  0.19632343  0.02546633     0.06200
C92         C  0.02613008  0.33003007  0.50010800     0.03300
C93         C  0.00244094  0.33176018  0.01463955    -0.12900
C94         C  0.00257350  0.35864827  0.01558314     0.00800
C95         C  0.02653092  0.38383870  0.49952120    -0.11400
C96         C  0.04982451  0.38178946  0.48308965     0.03300
C97         C  0.04949290  0.35484883  0.48436889    -0.10800
H98         H  0.48475759  0.31218879  0.02723118     0.08900
H99         H  0.02670302  0.40460054  0.49930790     0.06400
H100        H  0.06690203  0.35261662  0.47179804     0.06200
C101        C  0.05254031  0.18987648  0.16691667     0.03300
C102        C  0.02774519  0.16668907  0.15091692    -0.12900
C103        C  0.50078854  0.16636291  0.14919615     0.00800
C104        C  0.49907413  0.19005439  0.16503492    -0.11400
C105        C  0.02433993  0.21371756  0.18192901     0.03300
C106        C  0.05092390  0.21332087  0.18183143    -0.10800
H107        H  0.02978792  0.14900206  0.13883423     0.08900
H108        H  0.47852302  0.19030572  0.16427811     0.06400
H109        H  0.07058085  0.23103426  0.19421796     0.06200
C110        C  0.16278237  0.19127246  0.16750128     0.03300
C111        C  0.16448096  0.16814038  0.15171062    -0.12900
C112        C  0.19116839  0.16796174  0.15094162     0.00800
C113        C  0.21643004  0.19138036  0.16747635    -0.11400
C114        C  0.21459825  0.21466491  0.18418082     0.03300
C115        C  0.18761374  0.21429267  0.18367391    -0.10800
H116        H  0.14484852  0.15055476  0.13912902     0.08900
H117        H  0.23718201  0.19151105  0.16729463     0.06400
H118        H  0.18558533  0.23178519  0.19634770     0.06200
O119        O  0.21472638  0.09440277  0.04824891    -0.71600
O120        O  0.21599492  0.14701151  0.11885051    -0.71900
O121        O  0.21615797  0.09492457  0.11872825    -0.71700
O122        O  0.21458491  0.14608109  0.04832766    -0.71700
O123        O  0.16662005  0.12218662  0.04834922    -0.71700
O124        O  0.16818958  0.07092816  0.11880323    -0.71700
O125        O  0.16802741  0.12258337  0.11888912    -0.71600
O126        O  0.16676045  0.06996013  0.04828208    -0.71800
V127        V  0.21442219  0.12014297  0.08343647     1.35200
V128        V  0.16832769  0.09688816  0.08364932     1.35200
C129        C  0.19078071  0.07225027  0.03785895     0.77600
C130        C  0.19198430  0.14457922  0.12953642     0.77700
C131        C  0.19220971  0.07306396  0.12926393     0.77500
C132        C  0.19061741  0.14403726  0.03786647     0.77500
C133        C  0.35773445  0.38576722  0.16406455     0.03300
C134        C  0.38171369  0.38460499  0.14993348    -0.12900
C135        C  0.38201189  0.35798842  0.14890179     0.00800
C136        C  0.35823367  0.33245096  0.16465760    -0.11400
C137        C  0.33440222  0.33393839  0.18047969     0.03300
C138        C  0.33428118  0.36062666  0.17903753    -0.10800
H139        H  0.39969986  0.40453090  0.13842962     0.08900
H140        H  0.35837735  0.31184838  0.16482763     0.06400
H141        H  0.31629732  0.36238333  0.19072017     0.06200
C142        C  0.35923274  0.49621121  0.16734026     0.03300
C143        C  0.38224497  0.02107383  0.15118548    -0.12900
C144        C  0.38163970  0.04747030  0.14848147     0.00800
C145        C  0.35772889  0.04897167  0.16390350    -0.11400
C146        C  0.33445955  0.02381800  0.18079013     0.03300
C147        C  0.33521607  0.49742677  0.18126711    -0.10800
H148        H  0.40029128  0.01933248  0.13967745     0.08900
H149        H  0.35722450  0.06937426  0.16278041     0.06400
H150        H  0.31753861  0.47777906  0.19365657     0.06200
O151        O  0.48144467  0.38356654  0.04752919    -0.71600
O152        O  0.42797020  0.38169121  0.11769390    -0.71900
O153        O  0.47983530  0.38172961  0.11816932    -0.71700
O154        O  0.42917888  0.38379481  0.04715023    -0.71700
O155        O  0.40517859  0.33585677  0.04666606    -0.71700
O156        O  0.45604008  0.33379495  0.11732029    -0.71700
O157        O  0.40380090  0.33375555  0.11716431    -0.71600
O158        O  0.45682778  0.33563905  0.04678409    -0.71800
V159        V  0.45416187  0.38177755  0.08269803     1.35200
V160        V  0.43094957  0.33571753  0.08189522     1.35200
C161        C  0.47902530  0.35958569  0.03660388     0.77600
C162        C  0.40591719  0.35759247  0.12797179     0.77700
C163        C  0.47768510  0.35768720  0.12845177     0.77500
C164        C  0.40727361  0.35990857  0.03648893     0.77500
O165        O  0.40263233  0.09318871  0.11591203    -0.71600
O166        O  0.45600046  0.14527472  0.04623395    -0.71900
O167        O  0.40398626  0.09359562  0.04524939    -0.71700
O168        O  0.45503200  0.14536594  0.11680872    -0.71700
O169        O  0.47876981  0.12130210  0.11633743    -0.71700
O170        O  0.42732378  0.06913347  0.04514949    -0.71700
O171        O  0.47986886  0.12134565  0.04571721    -0.71600
O172        O  0.42676701  0.06952585  0.11583072    -0.71800
V173        V  0.42987602  0.11887511  0.08094815     1.35200
V174        V  0.45270962  0.09577446  0.08083554     1.35200
C175        C  0.40491032  0.07154351  0.12660226     0.77600
C176        C  0.47786449  0.14326070  0.03549977     0.77700
C177        C  0.40584040  0.07169178  0.03437898     0.77500
C178        C  0.47668061  0.14305005  0.12739617     0.77500
C179        C  0.22014405  0.22054392  0.50094144     0.03300
C180        C  0.19531954  0.21897534  0.48516321    -0.12900
C181        C  0.16833663  0.19222349  0.48371086     0.00800
C182        C  0.16622942  0.16680721  0.49990869    -0.11400
C183        C  0.19151471  0.16855081  0.01708217     0.03300
C184        C  0.21825144  0.19556991  0.01698864    -0.10800
H185        H  0.19745871  0.23874520  0.47309412     0.08900
H186        H  0.14547698  0.14606920  0.49943808     0.06400
H187        H  0.23775739  0.19750886  0.02964740     0.06200
C188        C  0.32999908  0.33103359  0.50327795     0.03300
C189        C  0.35538047  0.33271483  0.01700240    -0.12900
C190        C  0.38257616  0.35921268  0.01622659     0.00800
C191        C  0.38421356  0.38436107  0.49998839    -0.11400
C192        C  0.35857359  0.38246237  0.48454497     0.03300
C193        C  0.33161836  0.35574152  0.48709934    -0.10800
H194        H  0.35354881  0.31318200  0.02939382     0.08900
H195        H  0.40513683  0.40488201  0.49872554     0.06400
H196        H  0.31171611  0.35363493  0.47541684     0.06200
C197        C  0.49755302  0.35736313  0.33376492     0.03300
C198        C  0.02291459  0.38123063  0.34840427    -0.12900
C199        C  0.05001304  0.38182454  0.34821096     0.00800
C200        C  0.05161281  0.35838598  0.33140859    -0.11400
C201        C  0.02594568  0.33453575  0.31583021     0.03300
C202        C  0.49904383  0.33413101  0.31787670    -0.10800
H203        H  0.02099710  0.39878091  0.36109405     0.08900
H204        H  0.07244812  0.35870930  0.33046380     0.06400
H205        H  0.47914255  0.31634686  0.30601252     0.06200
C206        C  0.38839216  0.35862267  0.33303140     0.03300
C207        C  0.36343627  0.33532589  0.31733674    -0.12900
C208        C  0.33663323  0.33531297  0.31587567     0.00800
C209        C  0.33482243  0.35874969  0.33207684    -0.11400
C210        C  0.35994244  0.38209443  0.34883728     0.03300
C211        C  0.38668727  0.38193921  0.34837434    -0.10800
H212        H  0.36544462  0.31772442  0.30494734     0.08900
H213        H  0.31415222  0.35878425  0.33172347     0.06400
H214        H  0.40620554  0.39945956  0.36121539     0.06200
O215        O  0.38265247  0.47999920  0.45061225    -0.71600
O216        O  0.38250564  0.42739292  0.38098742    -0.71900
O217        O  0.38180713  0.47879014  0.38006006    -0.71700
O218        O  0.38318342  0.42811026  0.45164405    -0.71700
O219        O  0.33523216  0.40381454  0.45109486    -0.71700
O220        O  0.33385056  0.45457722  0.37961114    -0.71700
O221        O  0.33454215  0.40272144  0.38036303    -0.71600
O222        O  0.33468468  0.45539649  0.45021088    -0.71800
V223        V  0.38158823  0.45308155  0.41573296     1.35200
V224        V  0.33550199  0.42957031  0.41541906     1.35200
C225        C  0.35853626  0.47759308  0.46076753     0.77600
C226        C  0.35874502  0.40533183  0.37009553     0.77700
C227        C  0.35781263  0.47647927  0.36911882     0.77500
C228        C  0.35922241  0.40629012  0.46231577     0.77500
C229        C  0.19384942  0.05454840  0.33366332     0.03300
C230        C  0.21679167  0.05262245  0.31751483    -0.12900
C231        C  0.21661381  0.02572127  0.31621112     0.00800
C232        C  0.19313132  0.50052124  0.33271780    -0.11400
C233        C  0.16993585  0.50243358  0.34951812     0.03300
C234        C  0.17046266  0.02950480  0.34911512    -0.10800
H235        H  0.23427386  0.07211526  0.30465158     0.08900
H236        H  0.19284992  0.47970464  0.33236530     0.06400
H237        H  0.15310949  0.03159922  0.36206341     0.06200
C238        C  0.19287733  0.16410462  0.33371139     0.03300
C239        C  0.16934535  0.16570668  0.34864684    -0.12900
C240        C  0.16921131  0.19246453  0.34953558     0.00800
C241        C  0.19307231  0.21788856  0.33384898    -0.11400
C242        C  0.21683418  0.21625400  0.31817964     0.03300
C243        C  0.21661391  0.18935585  0.31920358    -0.10800
H244        H  0.15155922  0.14603235  0.36083688     0.08900
H245        H  0.19308467  0.23857233  0.33369784     0.01000
H246        H  0.23435962  0.18744945  0.30706650     0.06200
O247        O  0.09467374  0.21532227  0.45156030    -0.71600
O248        O  0.14752286  0.21709324  0.38084784    -0.71900
O249        O  0.09502752  0.21698520  0.38097770    -0.71700
O250        O  0.14647441  0.21549002  0.45142122    -0.71700
O251        O  0.12265114  0.16754824  0.45103268    -0.71700
O252        O  0.07124974  0.16905234  0.38060281    -0.71700
O253        O  0.12322493  0.16915844  0.38045358    -0.71600
O254        O  0.07041922  0.16737993  0.45115494    -0.71800
V255        V  0.12046298  0.21529325  0.41623481     1.35200
V256        V  0.09736637  0.16922938  0.41569017     1.35200
C257        C  0.07271177  0.19128123  0.46202991     0.77600
C258        C  0.14534974  0.19316240  0.37021248     0.77700
C259        C  0.07313622  0.19300822  0.37040125     0.77500
C260        C  0.14430631  0.19150853  0.46199294     0.77500
O261        O  0.09628241  0.40350556  0.38006236    -0.71600
O262        O  0.14687226  0.45599657  0.45174650    -0.71900
O263        O  0.09516971  0.40394600  0.45077357    -0.71700
O264        O  0.14853186  0.45618882  0.38104146    -0.71700
O265        O  0.12420640  0.47966301  0.38091827    -0.71700
O266        O  0.07087418  0.42745114  0.45054234    -0.71700
O267        O  0.12293833  0.47986006  0.45156113    -0.71600
O268        O  0.07246889  0.42748371  0.37985333    -0.71800
V269        V  0.12126221  0.43038178  0.41595429     1.35200
V270        V  0.09809104  0.45313884  0.41559533     1.35200
C271        C  0.07454651  0.40561164  0.36924925     0.77600
C272        C  0.14449044  0.47759839  0.46271644     0.77700
C273        C  0.07322298  0.40588791  0.46137745     0.77500
C274        C  0.14629237  0.47791112  0.37052271     0.77500
O275        O  0.31398033  0.28985721  0.28400664    -0.71600
O276        O  0.26107877  0.23627138  0.21504946    -0.71900
O277        O  0.31356077  0.28839833  0.21336957    -0.71700
O278        O  0.26195046  0.23820207  0.28560799    -0.71700
O279        O  0.23811544  0.26216632  0.28605540    -0.71700
O280        O  0.28941197  0.31204655  0.21338161    -0.71700
O281        O  0.23737332  0.26037366  0.21554197    -0.71600
O282        O  0.29059621  0.31427871  0.28405067    -0.71800
V283        V  0.28717801  0.26365715  0.24959737     1.35200
V284        V  0.26435873  0.28677558  0.24966323     1.35200
C285        C  0.31226264  0.31192036  0.29452947     0.77600
C286        C  0.23917122  0.23835709  0.20497681     0.77700
C287        C  0.31112274  0.30986439  0.20236269     0.77500
C288        C  0.24031732  0.24046893  0.29669748     0.77500
C289        C  0.16996534  0.08379889  0.31883107    -0.26200
C290        C  0.19394965  0.08277718  0.33387283    -0.14300
C291        C  0.21765018  0.10851790  0.34880597     0.36400
C292        C  0.21691885  0.13491621  0.34822556    -0.25600
C293        C  0.19286973  0.13591441  0.33332722    -0.14900
C294        C  0.16930946  0.11023570  0.31807027     0.37500
N295        N  0.14514571  0.11128204  0.30135911    -0.89100
H296        H  0.15196643  0.06398553  0.30709892     0.18600
H297        H  0.23493761  0.15472452  0.35994061     0.18600
N298        N  0.24207132  0.10758862  0.36493952    -0.88100
H299        H  0.12963439  0.09048225  0.29148551     0.35900
H300        H  0.15362859  0.12534686  0.27942312     0.41000
H301        H  0.23392851  0.09362706  0.38699928     0.40700
H302        H  0.25770996  0.12844669  0.37453420     0.35500
C303        C  0.41797008  0.33581447  0.35100538    -0.26200
C304        C  0.41648562  0.35858435  0.33329569    -0.14300
C305        C  0.44163991  0.38099674  0.31594244     0.36400
C306        C  0.46803948  0.38031479  0.31686182    -0.25600
C307        C  0.46950837  0.35748340  0.33437248    -0.14900
C308        C  0.44442702  0.33516444  0.35196665     0.37500
N309        N  0.44610143  0.31225328  0.37099897    -0.89100
H310        H  0.39853088  0.31878172  0.36445162     0.18600
H311        H  0.48744825  0.39733322  0.30334857     0.18600
N312        N  0.44006924  0.40401822  0.29704065    -0.88100
H313        H  0.42567939  0.29756598  0.38244638     0.35900
H314        H  0.46099108  0.32223233  0.39198000     0.41000
H315        H  0.42532212  0.39416659  0.27590514     0.40700
H316        H  0.46055826  0.41881064  0.28582449     0.35500
C317        C  0.26273097  0.26058140  0.03402007    -0.26200
C318        C  0.24851402  0.24860046  0.50126121    -0.14300
C319        C  0.26159079  0.26358569  0.46937025     0.36400
C320        C  0.28807374  0.29068454  0.47083668    -0.25600
C321        C  0.30191258  0.30268614  0.50342452    -0.14900
C322        C  0.28941229  0.28758715  0.03519816     0.37500
N323        N  0.30364016  0.29986177  0.06865021    -0.89100
H324        H  0.25263673  0.24900447  0.05850859     0.18600
H325        H  0.29829319  0.30231936  0.44642180     0.18600
N326        N  0.24812740  0.25099649  0.43569014    -0.88100
H327        H  0.29156384  0.28587489  0.08960779     0.35900
H328        H  0.30358924  0.31960748  0.07251067     0.41000
H329        H  0.24848800  0.23134062  0.43254413     0.40700
H330        H  0.26057708  0.26486625  0.41483194     0.35500
C331        C  0.35634601  0.42566857  0.19713243    -0.26200
C332        C  0.35754349  0.41373288  0.16421439    -0.14300
C333        C  0.35948827  0.42911601  0.13252827     0.36400
C334        C  0.36071849  0.45629043  0.13473694    -0.25600
C335        C  0.35952519  0.46826803  0.16760672    -0.14900
C336        C  0.35753321  0.45286536  0.19934346     0.37500
N337        N  0.35798891  0.46451811  0.23411493    -0.89100
H338        H  0.35524747  0.41405913  0.22144825     0.18600
H339        H  0.36177275  0.46783459  0.11038093     0.18600
N340        N  0.35893402  0.41743951  0.09774231    -0.88100
H341        H  0.33713317  0.45140418  0.24549632     0.35900
H342        H  0.36206978  0.98615222  0.23320233     0.41000
H343        H  0.35441914  0.39565411  0.09854827     0.40700
H344        H  0.37987616  0.43031118  0.08647356     0.35500
C345        C  0.09399716  0.19014931  0.13515668    -0.26200
C346        C  0.08060996  0.18997330  0.16745004    -0.14300
C347        C  0.09432819  0.19045653  0.19979575     0.36400
C348        C  0.12142470  0.19123923  0.19939220    -0.25600
C349        C  0.13476634  0.19131201  0.16708491    -0.14900
C350        C  0.12111755  0.19100959  0.13474578     0.37500
N351        N  0.13512007  0.19225492  0.10156703    -0.89100
H352        H  0.08357755  0.19009914  0.11023874     0.18600
H353        H  0.13185781  0.19132110  0.22431054     0.18600
N354        N  0.08043597  0.18950538  0.23295910    -0.88100
H355        H  0.13829828  0.21096701  0.08779831     0.35900
H356        H  0.12071241  0.17363444  0.08667130     0.41000
H357        H  0.09492370  0.20822158  0.24766025     0.40700
H358        H  0.07723440  0.17087674  0.24694505     0.35500
C359        C  0.04756716  0.27208764  0.51649006    -0.26200
C360        C  0.02475204  0.24776559  0.99859926    -0.14300
C361        C  0.50283984  0.25049772  0.98065895     0.36400
C362        C  0.50329666  0.27749209  0.98172151    -0.25600
C363        C  0.02584220  0.30180418  0.50023436    -0.14900
C364        C  0.04816928  0.29911665  0.51773448     0.37500
N365        N  0.07110566  0.32375308  0.53692437    -0.89100
H366        H  0.06453571  0.26972293  0.53004154     0.18600
H367        H  0.48655692  0.27987343  0.96762086     0.18600
N368        N  0.48038802  0.22593244  0.96086826    -0.88100
H369        H  0.08499277  0.31806207  0.04899345     0.35900
H370        H  0.06013457  0.32837557  0.05814282     0.41000
H371        H  0.49068205  0.22176512  0.44037946     0.40700
H372        H  0.46576278  0.23192917  0.44985821     0.35500
C373        C  0.27007200  0.04481945  0.48122545    -0.26200
C374        C  0.24781007  0.02437786  0.50365431    -0.14300
C375        C  0.25270903  0.00461826  0.02365285     0.36400
C376        C  0.27943211  0.00494975  0.01986978    -0.25600
C377        C  0.30165262  0.02524448  0.49745520    -0.14900
C378        C  0.29693103  0.04543807  0.47760578     0.37500
N379        N  0.31847800  0.06647000  0.45332285    -0.89100
H380        H  0.26625570  0.06005036  0.46575576     0.18600
H381        H  0.28320372  0.48973496  0.03543324     0.18600
N382        N  0.23131598  0.48411489  0.04848100    -0.88100
H383        H  0.30902897  0.06164158  0.42795923     0.35900
H384        H  0.33723140  0.06438852  0.45163914     0.41000
H385        H  0.21269146  0.48643062  0.05010672     0.40700
H386        H  0.24101517  0.48936299  0.07370405     0.35500
C387        C  0.44340429  0.13310536  0.35238545    -0.26200
C388        C  0.46804186  0.13547190  0.33461153    -0.14300
C389        C  0.46582817  0.11088012  0.31649176     0.36400
C390        C  0.43897866  0.08406055  0.31701387    -0.25600
C391        C  0.41434563  0.08166194  0.33475096    -0.14900
C392        C  0.41647718  0.10625936  0.35279344     0.37500
N393        N  0.39140444  0.10371480  0.37163650    -0.89100
H394        H  0.44536145  0.15214756  0.36627461     0.18600
H395        H  0.43702336  0.06506170  0.30301312     0.18600
N396        N  0.49074166  0.11345436  0.29723848    -0.88100
H397        H  0.39667285  0.12385988  0.38344667     0.35900
H398        H  0.38650631  0.08863009  0.39232774     0.41000
H399        H  0.99561950  0.12822183  0.27672930     0.40700
H400        H  0.48543397  0.09330219  0.28541824     0.35500
C401        C  0.11137268  0.46638372  0.18308200    -0.26200
C402        C  0.13551446  0.46821088  0.16472772    -0.14300
C403        C  0.13294912  0.44316484  0.14741976     0.36400
C404        C  0.10606928  0.41645333  0.14908730    -0.25600
C405        C  0.08186943  0.41466360  0.16727492    -0.14900
C406        C  0.08449497  0.43967372  0.18474776     0.37500
N407        N  0.05997475  0.43767440  0.20433930    -0.89100
H408        H  0.11372949  0.48574486  0.19658527     0.18600
H409        H  0.10372623  0.39708986  0.13560603     0.18600
N410        N  0.15750971  0.44514412  0.12793144    -0.88100
H411        H  0.06559462  0.45811318  0.21556804     0.35900
H412        H  0.05563040  0.42310455  0.22547838     0.41000
H413        H  0.16186475  0.45964219  0.10670647     0.40700
H414        H  0.15193919  0.42467683  0.11683218     0.35500
C415        C  0.05384207  0.38636443  0.66654689     0.03300
C416        C  0.05215214  0.36117405  0.68117712    -0.12900
C417        C  0.02532339  0.33423539  0.68176377     0.00800
C418        C  0.49995622  0.33267707  0.66553073    -0.11400
C419        C  0.50179852  0.35821420  0.65001571     0.03300
C420        C  0.02893728  0.38484316  0.65123071    -0.10800
H421        H  0.07176980  0.36311049  0.69351263     0.08900
H422        H  0.47923753  0.31190752  0.66505507     0.06400
H423        H  0.03113297  0.40457334  0.63895738     0.06200
C424        C  0.16363286  0.49629096  0.66377140     0.03300
C425        C  0.18867530  0.99809006  0.67903285    -0.12900
C426        C  0.21537619  0.02504882  0.68082831     0.00800
C427        C  0.21687562  0.05050647  0.66549650    -0.11400
C428        C  0.19144947  0.04861553  0.64943908     0.03300
C429        C  0.16490504  0.02143006  0.64958737    -0.10800
H430        H  0.18677180  0.47835578  0.69092303     0.08900
H431        H  0.23744090  0.07142086  0.66609142     0.06400
H432        H  0.14517808  0.01929432  0.63731978     0.06200
C433        C  0.49632084  0.16387230  0.83493107     0.03300
C434        C  0.02145078  0.16554139  0.84996200    -0.12900
C435        C  0.04855149  0.19226299  0.85019027     0.00800
C436        C  0.05023684  0.21736286  0.83357220    -0.11400
C437        C  0.02475285  0.21542700  0.81760651     0.03300
C438        C  0.99782896  0.18860830  0.81946613    -0.10800
H439        H  0.01948018  0.14599540  0.86248447     0.08900
H440        H  0.07107710  0.23800150  0.83286452     0.06400
H441        H  0.47817317  0.18652231  0.80704311     0.06200
C442        C  0.38649812  0.05335875  0.83341380     0.03300
C443        C  0.38502857  0.02816817  0.84778338    -0.12900
C444        C  0.35850382  0.50090610  0.84756490     0.00800
C445        C  0.33331350  0.49900010  0.83074472    -0.11400
C446        C  0.33496448  0.02447541  0.81513935     0.03300
C447        C  0.36162611  0.05152678  0.81747379    -0.10800
H448        H  0.40458198  0.03034488  0.86058917     0.08900
H449        H  0.31277703  0.47806885  0.82985847     0.06400
H450        H  0.36362438  0.07131712  0.80564228     0.06200
O451        O  0.28883319  0.49986830  0.78290245    -0.71600
O452        O  0.23731732  0.00169008  0.71279222    -0.71900
O453        O  0.28871815  0.00096470  0.71225544    -0.71700
O454        O  0.23690642  0.50058146  0.78347244    -0.71700
O455        O  0.26167333  0.04851553  0.78327909    -0.71700
O456        O  0.31341596  0.04891070  0.71211836    -0.71700
O457        O  0.26158882  0.04962400  0.71265389    -0.71600
O458        O  0.31309816  0.04779510  0.78274875    -0.71800
V459        V  0.26340113  0.50170471  0.74775951     1.35200
V460        V  0.28696908  0.04776689  0.74778316     1.35200
C461        C  0.31079775  0.02377871  0.79348094     0.77600
C462        C  0.23962417  0.02571875  0.70211931     0.77700
C463        C  0.31080242  0.02479998  0.70154872     0.77500
C464        C  0.23964959  0.02472939  0.79419392     0.77500
O465        O  0.04777960  0.25971694  0.71364953    -0.71600
O466        O  0.05018053  0.31327186  0.78380476    -0.71900
O467        O  0.04959687  0.26079456  0.78431423    -0.71700
O468        O  0.04832099  0.31170211  0.71316316    -0.71700
O469        O  0.50035615  0.28812943  0.71318639    -0.71700
O470        O  0.00164319  0.23724340  0.78475341    -0.71700
O471        O  0.00223086  0.28929432  0.78426416    -0.71600
O472        O  0.49984296  0.23560886  0.71361399    -0.71800
V473        V  0.04802585  0.28589533  0.74862805     1.35200
V474        V  0.50200339  0.26301303  0.74877209     1.35200
C475        C  0.02367230  0.23771697  0.70334332     0.77600
C476        C  0.02637185  0.31116992  0.79478777     0.77700
C477        C  0.02558629  0.23933869  0.79546629     0.77500
C478        C  0.02439346  0.30979172  0.70276119     0.77500
C479        C  0.32970416  0.02521289  0.99610677     0.03300
C480        C  0.33094273  0.00143281  0.98147297    -0.12900
C481        C  0.35757042  0.00106691  0.98092823     0.00800
C482        C  0.38315216  0.02503599  0.49722507    -0.11400
C483        C  0.38168757  0.04885155  0.51289513     0.03300
C484        C  0.35494076  0.04892262  0.51157441    -0.10800
H485        H  0.31114311  0.48364249  0.96941470     0.08900
H486        H  0.40374547  0.02485167  0.49758638     0.06400
H487        H  0.35306538  0.06668648  0.52371943     0.06200
C488        C  0.21971735  0.02417419  0.00381431     0.03300
C489        C  0.19492391  0.00083910  0.98800485    -0.12900
C490        C  0.16829075  0.00105026  0.98543862     0.00800
C491        C  0.16651487  0.02484695  0.00081678    -0.11400
C492        C  0.19134524  0.04804228  0.51739636     0.03300
C493        C  0.21789029  0.04752345  0.51817232    -0.10800
H494        H  0.19705274  0.48311688  0.97618581     0.08900
H495        H  0.14599976  0.02514896  0.99960805     0.06400
H496        H  0.23743158  0.06522899  0.53076180     0.06200
C497        C  0.02493855  0.21977740  0.49834838     0.03300
C498        C  0.04874279  0.21851173  0.98425153    -0.12900
C499        C  0.04911798  0.19190435  0.98342664     0.00800
C500        C  0.02545637  0.16644621  0.49921951    -0.11400
C501        C  0.00160839  0.16794108  0.51489182     0.03300
C502        C  0.00149455  0.19465757  0.51342763    -0.10800
H503        H  0.06649403  0.23832083  0.97223222     0.08900
H504        H  0.02563687  0.14586024  0.49949329     0.06400
H505        H  0.48389806  0.19666946  0.52554244     0.06200
C506        C  0.02576846  0.32995322  0.99956349     0.03300
C507        C  0.00287404  0.33187618  0.51533417    -0.12900
C508        C  0.00291215  0.35871444  0.51602108     0.00800
C509        C  0.02626322  0.38383631  0.99929599    -0.11400
C510        C  0.04961067  0.38184831  0.98294571     0.03300
C511        C  0.04925091  0.35487312  0.98410057    -0.10800
H512        H  0.48544459  0.31247932  0.52826133     0.08900
H513        H  0.02648182  0.40462244  0.99925136     0.06400
H514        H  0.06675714  0.35271440  0.97168868     0.06200
C515        C  0.05242181  0.19005713  0.66721552     0.03300
C516        C  0.02759573  0.16689726  0.65125994    -0.12900
C517        C  0.50062467  0.16658759  0.64963511     0.00800
C518        C  0.49893009  0.19025203  0.66559799    -0.11400
C519        C  0.02424565  0.21388593  0.68249858     0.03300
C520        C  0.05084085  0.21349320  0.68224751    -0.10800
H521        H  0.02961668  0.14921798  0.63911475     0.08900
H522        H  0.47836050  0.19047218  0.66499189     0.06400
H523        H  0.07052061  0.23118414  0.69462104     0.06200
C524        C  0.16247899  0.19102127  0.66748368     0.03300
C525        C  0.16418879  0.16791215  0.65163827    -0.12900
C526        C  0.19095313  0.16790291  0.65048762     0.00800
C527        C  0.21628627  0.19144906  0.66676811    -0.11400
C528        C  0.21445667  0.21470679  0.68357007     0.03300
C529        C  0.18738208  0.21416369  0.68341702    -0.10800
H530        H  0.14450434  0.15023166  0.63925826     0.08900
H531        H  0.23709618  0.19170118  0.66631221     0.06400
H532        H  0.18535536  0.23163440  0.69615379     0.06200
O533        O  0.21441139  0.09420052  0.54782656    -0.71600
O534        O  0.21574446  0.14700262  0.61820065    -0.71900
O535        O  0.21592703  0.09493134  0.61827878    -0.71700
O536        O  0.21429419  0.14589643  0.54768942    -0.71700
O537        O  0.16633107  0.12208180  0.54783362    -0.71700
O538        O  0.16795878  0.07085892  0.61834981    -0.71700
O539        O  0.16777937  0.12252693  0.61837918    -0.71600
O540        O  0.16644718  0.06979013  0.54783751    -0.71800
V541        V  0.21414315  0.12004497  0.58289177     1.35200
V542        V  0.16805034  0.09678873  0.58316026     1.35200
C543        C  0.19046349  0.07200901  0.53751315     0.77600
C544        C  0.19174519  0.14454790  0.62897260     0.77700
C545        C  0.19200605  0.07304336  0.62881138     0.77500
C546        C  0.19033933  0.14390568  0.53730212     0.77500
C547        C  0.35829690  0.38628273  0.66446760     0.03300
C548        C  0.38205663  0.38499677  0.64989024    -0.12900
C549        C  0.38231587  0.35835233  0.64894853     0.00800
C550        C  0.35855891  0.33286082  0.66478095    -0.11400
C551        C  0.33480583  0.33440751  0.68071229     0.03300
C552        C  0.33488949  0.36122168  0.67963145    -0.10800
H553        H  0.39989223  0.40483949  0.63803334     0.08900
H554        H  0.35862154  0.31221652  0.66484299     0.06400
H555        H  0.31705548  0.36309451  0.69157093     0.06200
C556        C  0.35901910  0.49625004  0.66675790     0.03300
C557        C  0.38185066  0.02102307  0.65032996    -0.12900
C558        C  0.38135316  0.04749787  0.64802756     0.00800
C559        C  0.35751158  0.04899891  0.66362478    -0.11400
C560        C  0.33434004  0.02386448  0.68063568     0.03300
C561        C  0.33520944  0.49751664  0.68124997    -0.10800
H562        H  0.39973992  0.01919549  0.63848192     0.08900
H563        H  0.35701782  0.06941041  0.66260423     0.06400
H564        H  0.31777079  0.47794925  0.69405763     0.06200
O565        O  0.48167522  0.38368914  0.54768762    -0.71600
O566        O  0.42825647  0.38190591  0.61780893    -0.71900
O567        O  0.47998286  0.38176435  0.61828951    -0.71700
O568        O  0.42935485  0.38393673  0.54731498    -0.71700
O569        O  0.40539282  0.33599941  0.54672565    -0.71700
O570        O  0.45604062  0.33382461  0.61753051    -0.71700
O571        O  0.40392395  0.33396842  0.61717998    -0.71600
O572        O  0.45709947  0.33576042  0.54702350    -0.71800
V573        V  0.45437415  0.38190681  0.58282138     1.35200
V574        V  0.43110361  0.33584475  0.58201126     1.35200
C575        C  0.47933769  0.35971377  0.53689751     0.77600
C576        C  0.40614216  0.35784563  0.62801971     0.77700
C577        C  0.47772364  0.35768316  0.62862371     0.77500
C578        C  0.40740816  0.36004401  0.53670527     0.77500
O579        O  0.40250066  0.09341221  0.61586790    -0.71600
O580        O  0.45620392  0.14570992  0.54657320    -0.71900
O581        O  0.40416294  0.09404837  0.54525976    -0.71700
O582        O  0.45490217  0.14561483  0.61716767    -0.71700
O583        O  0.47865555  0.12156646  0.61673362    -0.71700
O584        O  0.42745164  0.06953657  0.54531437    -0.71700
O585        O  0.47999264  0.12170006  0.54610232    -0.71600
O586        O  0.42668747  0.06979887  0.61591945    -0.71800
V587        V  0.42991012  0.11922509  0.58112042     1.35200
V588        V  0.45273138  0.09611048  0.58109945     1.35200
C589        C  0.40473538  0.07172118  0.62648004     0.77600
C590        C  0.47803396  0.14362458  0.53584227     0.77700
C591        C  0.40600059  0.07211671  0.53446927     0.77500
C592        C  0.47652591  0.14328624  0.62781820     0.77500
C593        C  0.22027297  0.22058454  0.00138892     0.03300
C594        C  0.19546650  0.21895512  0.98549138    -0.12900
C595        C  0.16850985  0.19219339  0.98401697     0.00800
C596        C  0.16644601  0.16680103  0.00026636    -0.11400
C597        C  0.19129491  0.16847225  0.51657548     0.03300
C598        C  0.21808364  0.19545878  0.51641619    -0.10800
H599        H  0.19761118  0.23869818  0.97333467     0.08900
H600        H  0.14572607  0.14603324  0.99975663     0.06400
H601        H  0.23759044  0.19732907  0.52898552     0.06200
C602        C  0.33005214  0.33096302  0.00273599     0.03300
C603        C  0.35535553  0.33280853  0.51755480    -0.12900
C604        C  0.38257678  0.35932083  0.51671335     0.00800
C605        C  0.38425343  0.38424349  0.99938311    -0.11400
C606        C  0.35862220  0.38232798  0.98384578     0.03300
C607        C  0.33166820  0.35562287  0.98644861    -0.10800
H608        H  0.35355749  0.31327420  0.52989685     0.08900
H609        H  0.40517545  0.40476689  0.99815127     0.06400
H610        H  0.31175582  0.35349847  0.97477401     0.06200
C611        C  0.49758212  0.35746421  0.83466123     0.03300
C612        C  0.02295193  0.38150500  0.84890845    -0.12900
C613        C  0.05008225  0.38215448  0.84863243     0.00800
C614        C  0.05166952  0.35866083  0.83196734    -0.11400
C615        C  0.02596037  0.33467900  0.81665149     0.03300
C616        C  0.49905977  0.33416924  0.81893979    -0.10800
H617        H  0.02105378  0.39913042  0.86141622     0.08900
H618        H  0.07253476  0.35905015  0.83091367     0.06400
H619        H  0.47911597  0.31628075  0.80728732     0.06200
C620        C  0.38824989  0.35836781  0.83269054     0.03300
C621        C  0.36325780  0.33500168  0.81711699    -0.12900
C622        C  0.33647773  0.33505374  0.81554135     0.00800
C623        C  0.33472281  0.35857410  0.83157793    -0.11400
C624        C  0.35986892  0.38197061  0.84821755     0.03300
C625        C  0.38659903  0.38179175  0.84779023    -0.10800
H626        H  0.36521997  0.31731459  0.80490130     0.08900
H627        H  0.31406959  0.35864157  0.83117428     0.06400
H628        H  0.40614581  0.39936894  0.86051893     0.06200
O629        O  0.38255491  0.47983639  0.95003039    -0.71600
O630        O  0.38244914  0.42730699  0.88030479    -0.71900
O631        O  0.38173312  0.47871279  0.87947585    -0.71700
O632        O  0.38316669  0.42799249  0.95095875    -0.71700
O633        O  0.33521741  0.40361986  0.95036248    -0.71700
O634        O  0.33377847  0.45454296  0.87907866    -0.71700
O635        O  0.33448612  0.40265966  0.87963500    -0.71600
O636        O  0.33458778  0.45516670  0.94968915    -0.71800
V637        V  0.38152390  0.45297035  0.91509318     1.35200
V638        V  0.33543912  0.42943816  0.91478379     1.35200
C639        C  0.35842691  0.47736562  0.96026320     0.77600
C640        C  0.35868761  0.40525168  0.86939945     0.77700
C641        C  0.35774909  0.47646538  0.86861289     0.77500
C642        C  0.35922665  0.40613447  0.96159836     0.77500
C643        C  0.19406983  0.05484120  0.83376834     0.03300
C644        C  0.21678141  0.05276850  0.81723089    -0.12900
C645        C  0.21664397  0.02589848  0.81611202     0.00800
C646        C  0.19329382  0.50077671  0.83292987    -0.11400
C647        C  0.17021518  0.50278227  0.84994032     0.03300
C648        C  0.17082407  0.02989563  0.84958828    -0.10800
H649        H  0.23408507  0.07213884  0.80397398     0.08900
H650        H  0.19299789  0.47995332  0.83261758     0.06400
H651        H  0.15362443  0.03208113  0.86280666     0.06200
C652        C  0.19301006  0.16434178  0.83392308     0.03300
C653        C  0.16968964  0.16605103  0.84930668    -0.12900
C654        C  0.16935488  0.19270241  0.84976414     0.00800
C655        C  0.19295407  0.21799992  0.83349781    -0.11400
C656        C  0.21660807  0.21629319  0.81758564     0.03300
C657        C  0.21645488  0.18944236  0.81877053    -0.10800
H658        H  0.15217566  0.14652309  0.86206779     0.08900
H659        H  0.19285626  0.23862581  0.83311304     0.01000
H660        H  0.23404265  0.18745154  0.80631542     0.06200
O661        O  0.09483189  0.21540424  0.95201606    -0.71600
O662        O  0.14767166  0.21728548  0.88120126    -0.71900
O663        O  0.09513922  0.21712487  0.88144035    -0.71700
O664        O  0.14664044  0.21551694  0.95178906    -0.71700
O665        O  0.12279626  0.16757846  0.95131827    -0.71700
O666        O  0.07141379  0.16919465  0.88093616    -0.71700
O667        O  0.12340006  0.16935089  0.88073693    -0.71600
O668        O  0.07055687  0.16746331  0.95146659    -0.71800
V669        V  0.12061313  0.21540496  0.91664855     1.35200
V670        V  0.09752354  0.16934350  0.91600243     1.35200
C671        C  0.07283344  0.19135359  0.96238075     0.77600
C672        C  0.14550952  0.19337779  0.87050544     0.77700
C673        C  0.07327081  0.19314652  0.87079629     0.77500
C674        C  0.14447058  0.19151217  0.96230202     0.77500
O675        O  0.09640330  0.40390206  0.88032830    -0.71600
O676        O  0.14684341  0.45621912  0.95218726    -0.71900
O677        O  0.09512414  0.40418628  0.95099037    -0.71700
O678        O  0.14870683  0.45654069  0.88150704    -0.71700
O679        O  0.12443438  0.48006721  0.88131225    -0.71700
O680        O  0.07086599  0.42772807  0.95075072    -0.71700
O681        O  0.12298725  0.48016085  0.95194129    -0.71600
O682        O  0.07261358  0.42790515  0.88008794    -0.71800
V683        V  0.12131887  0.43069224  0.91630367     1.35200
V684        V  0.09819335  0.45349484  0.91590436     1.35200
C685        C  0.07466770  0.40601159  0.86952399     0.77600
C686        C  0.14451428  0.47786167  0.96310467     0.77700
C687        C  0.07313698  0.40608884  0.96149579     0.77500
C688        C  0.14652958  0.47829278  0.87097477     0.77500
O689        O  0.31374703  0.28962892  0.78360591    -0.71600
O690        O  0.26103506  0.23640445  0.71423884    -0.71900
O691        O  0.31362157  0.28855339  0.71301004    -0.71700
O692        O  0.26162045  0.23806951  0.78479866    -0.71700
O693        O  0.23789437  0.26214066  0.78530190    -0.71700
O694        O  0.28952257  0.31225291  0.71301585    -0.71700
O695        O  0.23736238  0.26053789  0.71477407    -0.71600
O696        O  0.29047697  0.31416269  0.78364497    -0.71800
V697        V  0.28703538  0.26363288  0.74898688     1.35200
V698        V  0.26429322  0.28682733  0.74907512     1.35200
C699        C  0.31208488  0.31170945  0.79416421     0.77600
C700        C  0.23912151  0.23849378  0.70420318     0.77700
C701        C  0.31132002  0.31014974  0.70218526     0.77500
C702        C  0.24002764  0.24040310  0.79591797     0.77500
C703        C  0.16963716  0.08380629  0.82035068    -0.26200
C704        C  0.19421938  0.08309599  0.83394309    -0.14300
C705        C  0.21853233  0.10916485  0.84737350     0.36400
C706        C  0.21769268  0.13549938  0.84696982    -0.25600
C707        C  0.19302514  0.13616713  0.83356899    -0.14900
C708        C  0.16891888  0.11019589  0.81963486     0.37500
N709        N  0.14413152  0.11089069  0.80423268    -0.89100
H710        H  0.15119790  0.06377361  0.80965115     0.18600
H711        H  0.23615697  0.15553640  0.85762416     0.18600
N712        N  0.24371726  0.10866247  0.86179421    -0.88100
H713        H  0.12827310  0.08990087  0.79523793     0.35900
H714        H  0.15176667  0.12451794  0.78184167     0.41000
H715        H  0.23665963  0.09517998  0.88432871     0.40700
H716        H  0.25974724  0.12973640  0.87034622     0.35500
C717        C  0.41802369  0.33606042  0.85183358    -0.26200
C718        C  0.41634537  0.35833294  0.83315863    -0.14300
C719        C  0.44138725  0.38041774  0.81528739     0.36400
C720        C  0.46787446  0.37992012  0.81665451    -0.25600
C721        C  0.46953126  0.35756980  0.83510328    -0.14900
C722        C  0.44456789  0.33558291  0.85321659     0.37500
N723        N  0.44644390  0.31317151  0.87315237    -0.89100
H724        H  0.39867758  0.31930088  0.86569868     0.18600
H725        H  0.48719368  0.39667385  0.80273671     0.18600
N726        N  0.43961521  0.40292515  0.79543932    -0.88100
H727        H  0.42608989  0.29867685  0.88488762     0.35900
H728        H  0.46140408  0.32366223  0.89394106     0.41000
H729        H  0.42480982  0.39253994  0.77448670     0.40700
H730        H  0.46003972  0.41752982  0.78393768     0.35500
C731        C  0.26253524  0.26037183  0.53387388    -0.26200
C732        C  0.24862883  0.24861033  0.00150687    -0.14300
C733        C  0.26162713  0.26334239  0.96946843     0.36400
C734        C  0.28805894  0.29047351  0.97067699    -0.25600
C735        C  0.30196913  0.30268007  0.00315286    -0.14900
C736        C  0.28920342  0.28739394  0.53531784     0.37500
N737        N  0.30322951  0.29951031  0.56890530    -0.89100
H738        H  0.25236098  0.24864125  0.55825530     0.18600
H739        H  0.29821088  0.30194341  0.94615411     0.18600
N740        N  0.24815045  0.25043598  0.93590314    -0.88100
H741        H  0.29104356  0.28540638  0.58972621     0.35900
H742        H  0.30310599  0.31921121  0.57285034     0.41000
H743        H  0.24857712  0.23078885  0.93308004     0.40700
H744        H  0.26055698  0.26413702  0.91490580     0.35500
C745        C  0.35970599  0.42768072  0.69722174    -0.26200
C746        C  0.35812293  0.41422607  0.66443055    -0.14300
C747        C  0.35715090  0.42798235  0.63253997     0.36400
C748        C  0.35794061  0.45497564  0.63438547    -0.25600
C749        C  0.35944212  0.46841673  0.66713597    -0.14900
C750        C  0.36064392  0.45478604  0.69905031     0.37500
N751        N  0.36400774  0.46815350  0.73343520    -0.89100
H752        H  0.36087472  0.41729405  0.72160587     0.18600
H753        H  0.35677554  0.46533175  0.60997217     0.18600
N754        N  0.35429744  0.41490773  0.59806344    -0.88100
H755        H  0.34458395  0.45509936  0.74775171     0.35900
H756        H  0.36681981  0.98931454  0.73176611     0.41000
H757        H  0.35129483  0.39368518  0.59953782     0.40700
H758        H  0.37397823  0.42804161  0.58423662     0.35500
C759        C  0.09367416  0.18998609  0.63533844    -0.26200
C760        C  0.08043887  0.19003737  0.66766447    -0.14300
C761        C  0.09413469  0.19038454  0.69996944     0.36400
C762        C  0.12118593  0.19106449  0.69950132    -0.25600
C763        C  0.13442832  0.19101178  0.66716176    -0.14900
C764        C  0.12067480  0.19059831  0.63485589     0.37500
N765        N  0.13443916  0.19145369  0.60162508    -0.89100
H766        H  0.08320795  0.18990269  0.61044446     0.18600
H767        H  0.13164676  0.19113914  0.72439350     0.18600
N768        N  0.08022308  0.18932427  0.73315442    -0.88100
H769        H  0.13769679  0.21010712  0.58765032     0.35900
H770        H  0.11984519  0.17275600  0.58696692     0.41000
H771        H  0.09473147  0.20794561  0.74798020     0.40700
H772        H  0.07693583  0.17060029  0.74698887     0.35500
C773        C  0.04717351  0.27204987  0.01685678    -0.26200
C774        C  0.02494568  0.24784698  0.49840533    -0.14300
C775        C  0.50303971  0.25074974  0.48102445     0.36400
C776        C  0.50354640  0.27774502  0.48240328    -0.25600
C777        C  0.02554423  0.30173002  0.99987797    -0.14900
C778        C  0.04769795  0.29906156  0.01786257     0.37500
N779        N  0.07037196  0.32369979  0.03732302    -0.89100
H780        H  0.06405026  0.26973687  0.03072006     0.18600
H781        H  0.48667430  0.28016281  0.46868826     0.18600
N782        N  0.48040888  0.22623940  0.46134092    -0.88100
H783        H  0.08584012  0.31809260  0.54821078     0.35900
H784        H  0.06114357  0.32848231  0.55801161     0.41000
H785        H  0.49083949  0.22143028  0.94014169     0.40700
H786        H  0.46581340  0.23157085  0.94906832     0.35500
C787        C  0.27017584  0.04482113  0.98076078    -0.26200
C788        C  0.24795761  0.02459102  0.00339477    -0.14300
C789        C  0.25260467  0.00434911  0.52373366     0.36400
C790        C  0.27944274  0.00489850  0.52004439    -0.25600
C791        C  0.30160090  0.02508238  0.99707808    -0.14900
C792        C  0.29695071  0.04527075  0.97711120     0.37500
N793        N  0.31850394  0.06615359  0.95271512    -0.89100
H794        H  0.26639999  0.06003076  0.96518830     0.18600
H795        H  0.28325121  0.48965538  0.53547845     0.18600
N796        N  0.23112495  0.48354396  0.54823398    -0.88100
H797        H  0.30900881  0.06126628  0.92737690     0.35900
H798        H  0.33719738  0.06396653  0.95105419     0.41000
H799        H  0.21239964  0.48569145  0.54979939     0.40700
H800        H  0.24064921  0.48861151  0.57355467     0.35500
C801        C  0.44374026  0.13304216  0.85266519    -0.26200
C802        C  0.46827199  0.13550753  0.83451850    -0.14300
C803        C  0.46590376  0.11105887  0.81589286     0.36400
C804        C  0.43902396  0.08424660  0.81635465    -0.25600
C805        C  0.41449322  0.08174723  0.83447347    -0.14900
C806        C  0.41677586  0.10622498  0.85297448     0.37500
N807        N  0.39181407  0.10358788  0.87217580    -0.89100
H808        H  0.44580620  0.15198886  0.86690485     0.18600
H809        H  0.43695810  0.06534436  0.80200455     0.18600
N810        N  0.49068110  0.11378346  0.79617649    -0.88100
H811        H  0.39718391  0.12364824  0.88430465     0.35900
H812        H  0.38697429  0.08832848  0.89264272     0.41000
H813        H  0.99545423  0.12894264  0.77571520     0.40700
H814        H  0.48526940  0.09373329  0.78399014     0.35500
C815        C  0.11111105  0.46655645  0.68088863    -0.26200
C816        C  0.13560209  0.46806063  0.66380222    -0.14300
C817        C  0.13335803  0.44267392  0.64779764     0.36400
C818        C  0.10650447  0.41594781  0.64967409    -0.25600
C819        C  0.08198893  0.41448091  0.66666944    -0.14900
C820        C  0.08424969  0.43987060  0.68267336     0.37500
N821        N  0.05936634  0.43829074  0.70093491    -0.89100
H822        H  0.11317628  0.48616997  0.69336869     0.18600
H823        H  0.10442604  0.39632300  0.63721172     0.18600
N824        N  0.15819327  0.44432157  0.62933432    -0.88100
H825        H  0.06473052  0.45898448  0.71111401     0.35900
H826        H  0.05466593  0.42426691  0.72274947     0.41000
H827        H  0.16276952  0.45833822  0.60753487     0.40700
H828        H  0.15282413  0.42364018  0.61910750     0.35500
C829        C  0.05372568  0.88655747  0.16696946     0.03300
C830        C  0.05215422  0.86126495  0.18108462    -0.12900
C831        C  0.02541705  0.83424127  0.18128901     0.00800
C832        C  0.50007064  0.83267769  0.16501152    -0.11400
C833        C  0.50178071  0.85829533  0.14993247     0.03300
C834        C  0.02877658  0.88508660  0.15180406    -0.10800
H835        H  0.07179217  0.86317244  0.19332714     0.08900
H836        H  0.47945712  0.81181849  0.16414101     0.06400
H837        H  0.03086778  0.90493260  0.14001170     0.06200
C838        C  0.16357247  0.99639008  0.16463563     0.03300
C839        C  0.18862830  0.49807628  0.17967662    -0.12900
C840        C  0.21541586  0.52496689  0.18124344     0.00800
C841        C  0.21698664  0.55043671  0.16587501    -0.11400
C842        C  0.19155938  0.54863108  0.14995810     0.03300
C843        C  0.16491370  0.52152892  0.15036299    -0.10800
H844        H  0.18668094  0.97830869  0.19152935     0.08900
H845        H  0.23761779  0.57129279  0.16630994     0.06400
H846        H  0.14516702  0.51944482  0.13821863     0.06200
C847        C  0.49605512  0.66385496  0.33495873     0.03300
C848        C  0.02127089  0.66551849  0.34990393    -0.12900
C849        C  0.04842315  0.69215892  0.34985697     0.00800
C850        C  0.05015702  0.71721761  0.33305063    -0.11400
C851        C  0.02466367  0.71530768  0.31713022     0.03300
C852        C  0.99768728  0.68855709  0.31924929    -0.10800
H853        H  0.01926727  0.64601792  0.36259848     0.08900
H854        H  0.07104305  0.73779995  0.33215552     0.06400
H855        H  0.47793884  0.68644541  0.30684701     0.06200
C856        C  0.38638905  0.55325317  0.33376749     0.03300
C857        C  0.38500623  0.52810540  0.34812733    -0.12900
C858        C  0.35852290  0.00082328  0.34795002     0.00800
C859        C  0.33329704  0.99882762  0.33111167    -0.11400
C860        C  0.33488723  0.52426573  0.31547762     0.03300
C861        C  0.36149691  0.55134808  0.31782517    -0.10800
H862        H  0.40458594  0.53033858  0.36092598     0.08900
H863        H  0.31278697  0.97787040  0.33024505     0.06400
H864        H  0.36345367  0.57111391  0.30597241     0.06200
O865        O  0.28884214  0.99964209  0.28308117    -0.71600
O866        O  0.23737594  0.50155528  0.21299972    -0.71900
O867        O  0.28879389  0.50086557  0.21240012    -0.71700
O868        O  0.23694175  0.00041298  0.28365833    -0.71700
O869        O  0.26167165  0.54834640  0.28346526    -0.71700
O870        O  0.31353421  0.54880865  0.21242444    -0.71700
O871        O  0.26169741  0.54949158  0.21286839    -0.71600
O872        O  0.31304454  0.54757150  0.28307517    -0.71800
V873        V  0.26344871  0.00154265  0.24794004     1.35200
V874        V  0.28701625  0.54760593  0.24803786     1.35200
C875        C  0.31074799  0.52354714  0.29376511     0.77600
C876        C  0.23970025  0.52559695  0.20237127     0.77700
C877        C  0.31089762  0.52471919  0.20173784     0.77500
C878        C  0.23965077  0.52455951  0.29435777     0.77500
O879        O  0.04783859  0.75957898  0.21297035    -0.71600
O880        O  0.05017948  0.81309207  0.28310987    -0.71900
O881        O  0.04955862  0.76059448  0.28364472    -0.71700
O882        O  0.04841478  0.81158795  0.21247387    -0.71700
O883        O  0.50043217  0.78798240  0.21236657    -0.71700
O884        O  0.00160700  0.73708162  0.28402939    -0.71700
O885        O  0.00222832  0.78916270  0.28343419    -0.71600
O886        O  0.49988231  0.73544316  0.21286583    -0.71800
V887        V  0.04805487  0.78573319  0.24793886     1.35200
V888        V  0.50199558  0.76284841  0.24798010     1.35200
C889        C  0.02374132  0.73756930  0.20266621     0.77600
C890        C  0.02636345  0.81102102  0.29400294     0.77700
C891        C  0.02553077  0.73916714  0.29481525     0.77500
C892        C  0.02449720  0.80969353  0.20205147     0.77500
C893        C  0.32980902  0.52547746  0.49643700     0.03300
C894        C  0.33107118  0.50169714  0.48185241    -0.12900
C895        C  0.35770746  0.50135592  0.48130623     0.00800
C896        C  0.38300038  0.52468070  0.99695788    -0.11400
C897        C  0.38154091  0.54847063  0.01271748     0.03300
C898        C  0.35482715  0.54859952  0.01132668    -0.10800
H899        H  0.31126476  0.98386538  0.46986571     0.08900
H900        H  0.40357986  0.52446971  0.99732869     0.06400
H901        H  0.35296586  0.56636685  0.02348523     0.06200
C902        C  0.21950417  0.52384158  0.50400803     0.03300
C903        C  0.19480579  0.50054854  0.48797672    -0.12900
C904        C  0.16817694  0.50075366  0.48520011     0.00800
C905        C  0.16631146  0.52451827  0.50054976    -0.11400
C906        C  0.19163772  0.54838765  0.01750277     0.03300
C907        C  0.21820578  0.54790931  0.01797879    -0.10800
H908        H  0.19701262  0.98287294  0.47615511     0.08900
H909        H  0.14580836  0.52483058  0.49914935     0.06400
H910        H  0.23781424  0.56563512  0.03043174     0.06200
C911        C  0.02487499  0.71972784  0.99861518     0.03300
C912        C  0.04871139  0.71848269  0.48387155    -0.12900
C913        C  0.04907243  0.69188016  0.48318166     0.00800
C914        C  0.02542616  0.66638800  0.99920053    -0.11400
C915        C  0.00148872  0.66777115  0.01475337     0.03300
C916        C  0.00136065  0.69449587  0.01344312    -0.10800
H917        H  0.06641177  0.73823870  0.47169459     0.08900
H918        H  0.02561622  0.64580582  0.99936176     0.06400
H919        H  0.48364589  0.69632949  0.02547595     0.06200
C920        C  0.02611772  0.83002736  0.50008873     0.03300
C921        C  0.00245113  0.83176387  0.01465089    -0.12900
C922        C  0.00258414  0.85865213  0.01559428     0.00800
C923        C  0.02652228  0.88383775  0.49950607    -0.11400
C924        C  0.04981622  0.88178807  0.48307617     0.03300
C925        C  0.04948211  0.85484624  0.48435235    -0.10800
H926        H  0.48475133  0.81219125  0.02722271     0.08900
H927        H  0.02669662  0.90460072  0.49929597     0.06400
H928        H  0.06689209  0.85261393  0.47178406     0.06200
C929        C  0.05254024  0.68988141  0.16691015     0.03300
C930        C  0.02774594  0.66669595  0.15090770    -0.12900
C931        C  0.50078134  0.66635470  0.14919565     0.00800
C932        C  0.49906897  0.69004836  0.16503066    -0.11400
C933        C  0.02434036  0.71372076  0.18193047     0.03300
C934        C  0.05092415  0.71332413  0.18182967    -0.10800
H935        H  0.02978933  0.64901028  0.13882209     0.08900
H936        H  0.47851885  0.69030159  0.16427149     0.06400
H937        H  0.07058111  0.73103553  0.19421875     0.06200
C938        C  0.16277401  0.69126509  0.16750900     0.03300
C939        C  0.16447243  0.66813475  0.15171352    -0.12900
C940        C  0.19115993  0.66795663  0.15094157     0.00800
C941        C  0.21642186  0.69137426  0.16747767    -0.11400
C942        C  0.21459008  0.71465751  0.18418608     0.03300
C943        C  0.18760504  0.71428406  0.18368329    -0.10800
H944        H  0.14484012  0.65055088  0.13912952     0.08900
H945        H  0.23717419  0.69150572  0.16729294     0.06400
H946        H  0.18557635  0.73177549  0.19635973     0.06200
O947        O  0.21472328  0.59440320  0.04824552    -0.71600
O948        O  0.21598698  0.64700857  0.11884809    -0.71900
O949        O  0.21614994  0.59492232  0.11872529    -0.71700
O950        O  0.21458094  0.64608168  0.04832486    -0.71700
O951        O  0.16661602  0.62218481  0.04834079    -0.71700
O952        O  0.16818157  0.57092677  0.11879812    -0.71700
O953        O  0.16801944  0.62258189  0.11888091    -0.71600
O954        O  0.16675733  0.56995905  0.04827664    -0.71800
V955        V  0.21441641  0.62014188  0.08343327     1.35200
V956        V  0.16832188  0.59688669  0.08364240     1.35200
C957        C  0.19077841  0.57225016  0.03785500     0.77600
C958        C  0.19197596  0.64457620  0.12953214     0.77700
C959        C  0.19220110  0.57306280  0.12926176     0.77500
C960        C  0.19061354  0.64403693  0.03786127     0.77500
C961        C  0.35772386  0.88576162  0.16405410     0.03300
C962        C  0.38170501  0.88460126  0.14992697    -0.12900
C963        C  0.38200578  0.85798617  0.14889865     0.00800
C964        C  0.35822802  0.83244809  0.16465387    -0.11400
C965        C  0.33439418  0.83393352  0.18047186     0.03300
C966        C  0.33427051  0.86062044  0.17902607    -0.10800
H967        H  0.39969130  0.90452778  0.13842433     0.08900
H968        H  0.35837396  0.81184668  0.16482670     0.06400
H969        H  0.31628534  0.86237602  0.19070656     0.06200
C970        C  0.35924005  0.99621301  0.16734402     0.03300
C971        C  0.38223521  0.52107029  0.15117592    -0.12900
C972        C  0.38163053  0.54746696  0.14847127     0.00800
C973        C  0.35772206  0.54897034  0.16389753    -0.11400
C974        C  0.33445414  0.52381805  0.18078835     0.03300
C975        C  0.33522171  0.99742701  0.18126767    -0.10800
H976        H  0.40028010  0.51932777  0.13966545     0.08900
H977        H  0.35721825  0.56937324  0.16277427     0.06400
H978        H  0.31754284  0.97777811  0.19365347     0.06200
O979        O  0.48143859  0.88356806  0.04752638    -0.71600
O980        O  0.42796482  0.88169116  0.11769294    -0.71900
O981        O  0.47983131  0.88173259  0.11816777    -0.71700
O982        O  0.42917219  0.88379399  0.04714986    -0.71700
O983        O  0.40517209  0.83585587  0.04666698    -0.71700
O984        O  0.45603771  0.83379796  0.11731888    -0.71700
O985        O  0.40379765  0.83375545  0.11716458    -0.71600
O986        O  0.45682248  0.83564054  0.04678155    -0.71800
V987        V  0.45415650  0.88177848  0.08269658     1.35200
V988        V  0.43094546  0.83571843  0.08189447     1.35200
C989        C  0.47901869  0.85958738  0.03659946     0.77600
C990        C  0.40591262  0.85759189  0.12797109     0.77700
C991        C  0.47768132  0.85769068  0.12845196     0.77500
C992        C  0.40726630  0.85990744  0.03649050     0.77500
O993        O  0.40262563  0.59318625  0.11590244    -0.71600
O994        O  0.45599910  0.64527581  0.04623015    -0.71900
O995        O  0.40398307  0.59359575  0.04523917    -0.71700
O996        O  0.45502668  0.64536224  0.11680427    -0.71700
O997        O  0.47876055  0.62129448  0.11633638    -0.71700
O998        O  0.42732282  0.56913584  0.04513626    -0.71700
O999        O  0.47986903  0.62134828  0.04571697    -0.71600
O1000       O  0.42675665  0.56951975  0.11581756    -0.71800
V1001       V  0.42987173  0.61887381  0.08094092     1.35200
V1002       V  0.45270436  0.59577221  0.08082839     1.35200
C1003       C  0.40490125  0.57153918  0.12659059     0.77600
C1004       C  0.47786592  0.64326448  0.03550102     0.77700
C1005       C  0.40583878  0.57169322  0.03436639     0.77500
C1006       C  0.47667307  0.64304345  0.12739443     0.77500
C1007       C  0.22015749  0.72054129  0.50092921     0.03300
C1008       C  0.19533286  0.71897815  0.48515951    -0.12900
C1009       C  0.16834544  0.69223070  0.48371981     0.00800
C1010       C  0.16623462  0.66681374  0.49992070    -0.11400
C1011       C  0.19150988  0.66855102  0.01707924     0.03300
C1012       C  0.21824324  0.69557357  0.01699483    -0.10800
H1013       H  0.19747504  0.73874834  0.47308760     0.08900
H1014       H  0.14547870  0.64607903  0.49945923     0.06400
H1015       H  0.23774873  0.69751492  0.02965775     0.06200
C1016       C  0.33001206  0.83102676  0.50325452     0.03300
C1017       C  0.35536992  0.83271636  0.01701347    -0.12900
C1018       C  0.38256762  0.85921212  0.01623229     0.00800
C1019       C  0.38422076  0.88436072  0.49998665    -0.11400
C1020       C  0.35858127  0.88245946  0.48453710     0.03300
C1021       C  0.33162879  0.85573478  0.48708010    -0.10800
H1022       H  0.35353714  0.81318323  0.02940545     0.08900
H1023       H  0.40514185  0.90488455  0.49873288     0.06400
H1024       H  0.31172680  0.85362610  0.47539410     0.06200
C1025       C  0.49754673  0.85735054  0.33377154     0.03300
C1026       C  0.02291602  0.88123267  0.34840947    -0.12900
C1027       C  0.05001522  0.88182780  0.34821213     0.00800
C1028       C  0.05161412  0.85838840  0.33141172    -0.11400
C1029       C  0.02594588  0.83453554  0.31583970     0.03300
C1030       C  0.49903980  0.83412247  0.31787586    -0.10800
H1031       H  0.02099967  0.89878433  0.36109728     0.08900
H1032       H  0.07245008  0.85871315  0.33046348     0.06400
H1033       H  0.47913941  0.81634008  0.30600777     0.06200
C1034       C  0.38839018  0.85861653  0.33303067     0.03300
C1035       C  0.36343416  0.83532242  0.31733290    -0.12900
C1036       C  0.33663274  0.83531265  0.31587009     0.00800
C1037       C  0.33482394  0.85875017  0.33207243    -0.11400
C1038       C  0.35994444  0.88209232  0.34883594     0.03300
C1039       C  0.38668743  0.88193365  0.34837505    -0.10800
H1040       H  0.36544127  0.81772044  0.30494288     0.08900
H1041       H  0.31415497  0.85878717  0.33171798     0.06400
H1042       H  0.40620587  0.89945178  0.36121833     0.06200
O1043       O  0.38265662  0.98000137  0.45060749    -0.71600
O1044       O  0.38251034  0.92738920  0.38099027    -0.71900
O1045       O  0.38181341  0.97878668  0.38005528    -0.71700
O1046       O  0.38318876  0.92811231  0.45164641    -0.71700
O1047       O  0.33523757  0.90381193  0.45109089    -0.71700
O1048       O  0.33385679  0.95457876  0.37961143    -0.71700
O1049       O  0.33454682  0.90272274  0.38035933    -0.71600
O1050       O  0.33468889  0.95539411  0.45021138    -0.71800
V1051       V  0.38159335  0.95308092  0.41573214     1.35200
V1052       V  0.33550712  0.92956984  0.41541762     1.35200
C1053       C  0.35853976  0.97759319  0.46076459     0.77600
C1054       C  0.35874915  0.90533045  0.37009494     0.77700
C1055       C  0.35781967  0.97647772  0.36911503     0.77500
C1056       C  0.35922826  0.90628915  0.46231344     0.77500
C1057       C  0.19383979  0.55454761  0.33365865     0.03300
C1058       C  0.21678003  0.55262049  0.31750633    -0.12900
C1059       C  0.21660199  0.52571939  0.31620223     0.00800
C1060       C  0.19314329  0.00052308  0.33272702    -0.11400
C1061       C  0.16994669  0.00243499  0.34952486     0.03300
C1062       C  0.17045312  0.52950405  0.34911125    -0.10800
H1063       H  0.23426188  0.57211295  0.30464222     0.08900
H1064       H  0.19286225  0.97970668  0.33237538     0.06400
H1065       H  0.15310152  0.53159899  0.36206310     0.06200
C1066       C  0.19287997  0.66411039  0.33372298     0.03300
C1067       C  0.16935091  0.66571499  0.34866295    -0.12900
C1068       C  0.16921794  0.69247340  0.34955072     0.00800
C1069       C  0.19307763  0.71789584  0.33385998    -0.11400
C1070       C  0.21683700  0.71625880  0.31818714     0.03300
C1071       C  0.21661558  0.68936009  0.31921135    -0.10800
H1072       H  0.15156565  0.64604180  0.36085594     0.08900
H1073       H  0.19309069  0.73857995  0.33370778     0.01000
H1074       H  0.23435896  0.68745182  0.30707065     0.06200
O1075       O  0.09468293  0.71533297  0.45157750    -0.71600
O1076       O  0.14752940  0.71710331  0.38086112    -0.71900
O1077       O  0.09503306  0.71699374  0.38099345    -0.71700
O1078       O  0.14648402  0.71550066  0.45143464    -0.71700
O1079       O  0.12265705  0.66755873  0.45105083    -0.71700
O1080       O  0.07125981  0.66906100  0.38061636    -0.71700
O1081       O  0.12323421  0.66916848  0.38047262    -0.71600
O1082       O  0.07042652  0.66739060  0.45116903    -0.71800
V1083       V  0.12047067  0.71530351  0.41624991     1.35200
V1084       V  0.09737446  0.66923960  0.41570652     1.35200
C1085       C  0.07272052  0.69129189  0.46204623     0.77600
C1086       C  0.14535748  0.69317229  0.37022858     0.77700
C1087       C  0.07314480  0.69301569  0.37041330     0.77500
C1088       C  0.14431425  0.69151859  0.46200762     0.77500
O1089       O  0.09628537  0.90350780  0.38006106    -0.71600
O1090       O  0.14687161  0.95599304  0.45175179    -0.71900
O1091       O  0.09516653  0.90394514  0.45077116    -0.71700
O1092       O  0.14853827  0.95618878  0.38104671    -0.71700
O1093       O  0.12421545  0.97966564  0.38092008    -0.71700
O1094       O  0.07087427  0.92745359  0.45053645    -0.71700
O1095       O  0.12294078  0.97985965  0.45156253    -0.71600
O1096       O  0.07247526  0.92748937  0.37984873    -0.71800
V1097       V  0.12126378  0.93038131  0.41595583     1.35200
V1098       V  0.09809574  0.95314153  0.41559357     1.35200
C1099       C  0.07455073  0.90561571  0.36924679     0.77600
C1100       C  0.14449037  0.97759527  0.46272138     0.77700
C1101       C  0.07321936  0.90588808  0.46137080     0.77500
C1102       C  0.14630135  0.97791247  0.37052739     0.77500
O1103       O  0.31397819  0.78985687  0.28400149    -0.71600
O1104       O  0.26107355  0.73626728  0.21504927    -0.71900
O1105       O  0.31355537  0.78839489  0.21336451    -0.71700
O1106       O  0.26194909  0.73820232  0.28560796    -0.71700
O1107       O  0.23811532  0.76216784  0.28605733    -0.71700
O1108       O  0.28940476  0.81204128  0.21337498    -0.71700
O1109       O  0.23736651  0.76036793  0.21554412    -0.71600
O1110       O  0.29059554  0.81427979  0.28404406    -0.71800
V1111       V  0.28717448  0.76365523  0.24959465     1.35200
V1112       V  0.26435501  0.78677346  0.24966075     1.35200
C1113       C  0.31226160  0.81192087  0.29452325     0.77600
C1114       C  0.23916443  0.73835122  0.20497926     0.77700
C1115       C  0.31111583  0.80985972  0.20235610     0.77500
C1116       C  0.24031779  0.74047108  0.29670032     0.77500
C1117       C  0.16995555  0.58380132  0.31884432    -0.26200
C1118       C  0.19394320  0.58277809  0.33387284    -0.14300
C1119       C  0.21765068  0.60851940  0.34879580     0.36400
C1120       C  0.21692181  0.63491902  0.34822024    -0.25600
C1121       C  0.19286914  0.63591852  0.33333538    -0.14900
C1122       C  0.16930263  0.61023963  0.31808704     0.37500
N1123       N  0.14513548  0.61128727  0.30138752    -0.89100
H1124       H  0.15195163  0.56398789  0.30711886     0.18600
H1125       H  0.23494562  0.65472746  0.35992825     0.18600
N1126       N  0.24207676  0.60758963  0.36491393    -0.88100
H1127       H  0.12961973  0.59048717  0.29151915     0.35900
H1128       H  0.15361304  0.62534994  0.27944903     0.41000
H1129       H  0.23394148  0.59363058  0.38697657     0.40700
H1130       H  0.25772031  0.62844826  0.37450208     0.35500
C1131       C  0.41796429  0.83580495  0.35100747    -0.26200
C1132       C  0.41648198  0.85857533  0.33329598    -0.14300
C1133       C  0.44163706  0.88098608  0.31594228     0.36400
C1134       C  0.46803552  0.88030244  0.31686358    -0.25600
C1135       C  0.46950254  0.85747103  0.33437655    -0.14900
C1136       C  0.44442021  0.83515297  0.35197010     0.37500
N1137       N  0.44609251  0.81224073  0.37100261    -0.89100
H1138       H  0.39852432  0.81877343  0.36445375     0.18600
H1139       H  0.48744512  0.89731985  0.30335051     0.18600
N1140       N  0.44006845  0.90400798  0.29703873    -0.88100
H1141       H  0.42566990  0.79755440  0.38244952     0.35900
H1142       H  0.46098201  0.82221887  0.39198399     0.41000
H1143       H  0.42532159  0.89415646  0.27590297     0.40700
H1144       H  0.46055803  0.91879918  0.28582285     0.35500
C1145       C  0.26271678  0.76058697  0.03403299    -0.26200
C1146       C  0.24852961  0.74859408  0.50124388    -0.14300
C1147       C  0.26160642  0.76357466  0.46935081     0.36400
C1148       C  0.28808931  0.79067372  0.47081419    -0.25600
C1149       C  0.30192740  0.80267858  0.50340142    -0.14900
C1150       C  0.28939855  0.78759267  0.03521240     0.37500
N1151       N  0.30362585  0.79986646  0.06866495    -0.89100
H1152       H  0.25262213  0.74900914  0.05852087     0.18600
H1153       H  0.29830874  0.80230638  0.44639817     0.18600
N1154       N  0.24814244  0.75098106  0.43567240    -0.88100
H1155       H  0.29154844  0.78587956  0.08962202     0.35900
H1156       H  0.30357588  0.81961266  0.07252543     0.41000
H1157       H  0.24850200  0.73132421  0.43253162     0.40700
H1158       H  0.26059246  0.76484766  0.41481213     0.35500
C1159       C  0.35633959  0.92566255  0.19712621    -0.26200
C1160       C  0.35753451  0.91372784  0.16420655    -0.14300
C1161       C  0.35948462  0.92911536  0.13252235     0.36400
C1162       C  0.36072129  0.95629265  0.13473462    -0.25600
C1163       C  0.35953017  0.96826894  0.16760626    -0.14900
C1164       C  0.35753399  0.95286239  0.19934093     0.37500
N1165       N  0.35799236  0.96451403  0.23411389    -0.89100
H1166       H  0.35523835  0.91405023  0.22144052     0.18600
H1167       H  0.36177885  0.96784016  0.11038034     0.18600
N1168       N  0.35893044  0.91744107  0.09773497    -0.88100
H1169       H  0.33713616  0.95140237  0.24549519     0.35900
H1170       H  0.36206243  0.48615487  0.23320112     0.41000
H1171       H  0.35441309  0.89565481  0.09853863     0.40700
H1172       H  0.37987352  0.93031160  0.08646803     0.35500
C1173       C  0.09400268  0.69016313  0.13515513    -0.26200
C1174       C  0.08060780  0.68997552  0.16744670    -0.14300
C1175       C  0.09431553  0.69044317  0.19979467     0.36400
C1176       C  0.12141026  0.69122240  0.19939540    -0.25600
C1177       C  0.13475974  0.69130699  0.16708986    -0.14900
C1178       C  0.12112125  0.69101990  0.13474864     0.37500
N1179       N  0.13513256  0.69227709  0.10157277    -0.89100
H1180       H  0.08359049  0.69012442  0.11023590     0.18600
H1181       H  0.13183601  0.69129279  0.22431511     0.18600
N1182       N  0.08041440  0.68948009  0.23295527    -0.88100
H1183       H  0.13831727  0.71099585  0.08781439     0.35900
H1184       H  0.12072760  0.67366358  0.08666496     0.41000
H1185       H  0.09489938  0.70818941  0.24766860     0.40700
H1186       H  0.07720618  0.67084467  0.24693094     0.35500
C1187       C  0.04756389  0.77209520  0.51649482    -0.26200
C1188       C  0.02475356  0.74776515  0.99859508    -0.14300
C1189       C  0.50283183  0.75049577  0.98067401     0.36400
C1190       C  0.50328493  0.77748845  0.98172995    -0.25600
C1191       C  0.02583334  0.80180344  0.50022382    -0.14900
C1192       C  0.04816131  0.79912201  0.51773097     0.37500
N1193       N  0.07109376  0.82376248  0.53691979    -0.89100
H1194       H  0.06453370  0.76973543  0.53005078     0.18600
H1195       H  0.48653687  0.77986190  0.96763806     0.18600
N1196       N  0.48037470  0.72592310  0.96089816    -0.88100
H1197       H  0.08497669  0.81804420  0.04903285     0.35900
H1198       H  0.06011608  0.82835657  0.05817164     0.41000
H1199       H  0.49067839  0.72177070  0.44036503     0.40700
H1200       H  0.46576130  0.73193639  0.44984856     0.35500
C1201       C  0.27007890  0.54482843  0.48121907    -0.26200
C1202       C  0.24781336  0.52438339  0.50364167    -0.14300
C1203       C  0.25270686  0.50461533  0.02364951     0.36400
C1204       C  0.27942861  0.50494414  0.01986356    -0.25600
C1205       C  0.30165742  0.52525222  0.49745356    -0.14900
C1206       C  0.29693911  0.54544849  0.47760531     0.37500
N1207       N  0.31849058  0.56648460  0.45332968    -0.89100
H1208       H  0.26626495  0.56006139  0.46575046     0.18600
H1209       H  0.28320753  0.98974083  0.03543966     0.18600
N1210       N  0.23131730  0.98411594  0.04848218    -0.88100
H1211       H  0.30904685  0.56165963  0.42796323     0.35900
H1212       H  0.33724503  0.56440455  0.45165074     0.41000
H1213       H  0.21269110  0.98642899  0.05010501     0.40700
H1214       H  0.24101429  0.98936443  0.07370639     0.35500
C1215       C  0.44339019  0.63311248  0.35240458    -0.26200
C1216       C  0.46802677  0.63547742  0.33462954    -0.14300
C1217       C  0.46581135  0.61088488  0.31650990     0.36400
C1218       C  0.43896206  0.58406576  0.31703478    -0.25600
C1219       C  0.41433009  0.58166810  0.33477321    -0.14900
C1220       C  0.41646243  0.60626664  0.35281398     0.37500
N1221       N  0.39138985  0.60372362  0.37165584    -0.89100
H1222       H  0.44534846  0.65215551  0.36629271     0.18600
H1223       H  0.43700589  0.56506641  0.30303437     0.18600
N1224       N  0.49072309  0.61345814  0.29725334    -0.88100
H1225       H  0.39665887  0.62386939  0.38346450     0.35900
H1226       H  0.38649095  0.58863960  0.39234806     0.41000
H1227       H  0.99564622  0.62819947  0.27672478     0.40700
H1228       H  0.48541437  0.59330548  0.28543373     0.35500
C1229       C  0.11138777  0.96637795  0.18306004    -0.26200
C1230       C  0.13552749  0.96820587  0.16470016    -0.14300
C1231       C  0.13295981  0.94316125  0.14738598     0.36400
C1232       C  0.10608033  0.91644900  0.14905671    -0.25600
C1233       C  0.08188311  0.91465820  0.16725226    -0.14900
C1234       C  0.08451042  0.93966811  0.18472770     0.37500
N1235       N  0.05999216  0.93766879  0.20432380    -0.89100
H1236       H  0.11374607  0.98573840  0.19656664     0.18600
H1237       H  0.10373538  0.89708604  0.13557205     0.18600
N1238       N  0.15751746  0.94514283  0.12788849    -0.88100
H1239       H  0.06561285  0.95810762  0.21555303     0.35900
H1240       H  0.05565001  0.92309910  0.22546246     0.41000
H1241       H  0.16186861  0.95964264  0.10666649     0.40700
H1242       H  0.15194527  0.92467659  0.11678463     0.35500
C1243       C  0.05382864  0.88636853  0.66657032     0.03300
C1244       C  0.05214022  0.86117665  0.68119314    -0.12900
C1245       C  0.02531537  0.83423409  0.68176272     0.00800
C1246       C  0.49996056  0.83267939  0.66553914    -0.11400
C1247       C  0.50180393  0.85821447  0.65001723     0.03300
C1248       C  0.02892580  0.88484601  0.65124638    -0.10800
H1249       H  0.07175641  0.86311411  0.69353419     0.08900
H1250       H  0.47923923  0.81191216  0.66507512     0.06400
H1251       H  0.03112088  0.90457788  0.63897879     0.06200
C1252       C  0.16361911  0.99629588  0.66379714     0.03300
C1253       C  0.18868755  0.49808604  0.67901267    -0.12900
C1254       C  0.21538516  0.52504718  0.68082063     0.00800
C1255       C  0.21688376  0.55050594  0.66549360    -0.11400
C1256       C  0.19145907  0.54861402  0.64943107     0.03300
C1257       C  0.16491749  0.52142622  0.64956759    -0.10800
H1258       H  0.18675903  0.97836072  0.69094666     0.08900
H1259       H  0.23744683  0.57142221  0.66609752     0.06400
H1260       H  0.14519147  0.51929009  0.63729672     0.06200
C1261       C  0.49633582  0.66386937  0.83491465     0.03300
C1262       C  0.02143612  0.66553970  0.84996777    -0.12900
C1263       C  0.04854067  0.69225713  0.85018733     0.00800
C1264       C  0.05023055  0.71735763  0.83356500    -0.11400
C1265       C  0.02474733  0.71542651  0.81760349     0.03300
C1266       C  0.99781974  0.68861204  0.81947177    -0.10800
H1267       H  0.01946251  0.64599327  0.86249260     0.08900
H1268       H  0.07107376  0.73799302  0.83285057     0.06400
H1269       H  0.47818516  0.68651587  0.80702434     0.06200
C1270       C  0.38651355  0.55335322  0.83338892     0.03300
C1271       C  0.38503969  0.52816236  0.84776407    -0.12900
C1272       C  0.35849640  0.00090885  0.84757590     0.00800
C1273       C  0.33330603  0.99899962  0.83075097    -0.11400
C1274       C  0.33497539  0.52447578  0.81512882     0.03300
C1275       C  0.36164150  0.55152399  0.81745172    -0.10800
H1276       H  0.40459260  0.53033698  0.86056884     0.08900
H1277       H  0.31277260  0.97806585  0.82985709     0.06400
H1278       H  0.36364193  0.57131398  0.80561627     0.06200
O1279       O  0.28882657  0.99986681  0.78290233    -0.71600
O1280       O  0.23732236  0.50168958  0.71279429    -0.71900
O1281       O  0.28872310  0.50096579  0.71225714    -0.71700
O1282       O  0.23690111  0.00058202  0.78346947    -0.71700
O1283       O  0.26167804  0.54851494  0.78328266    -0.71700
O1284       O  0.31341981  0.54891187  0.71211974    -0.71700
O1285       O  0.26159262  0.54962351  0.71265631    -0.71600
O1286       O  0.31310484  0.54779667  0.78274869    -0.71800
V1287       V  0.26339585  0.00170427  0.74775755     1.35200
V1288       V  0.28697356  0.54776737  0.74778522     1.35200
C1289       C  0.31080581  0.52378025  0.79347823     0.77600
C1290       C  0.23962974  0.52571792  0.70211935     0.77700
C1291       C  0.31080715  0.52480133  0.70155109     0.77500
C1292       C  0.23965484  0.52472847  0.79419818     0.77500
O1293       O  0.04777543  0.75971411  0.71363736    -0.71600
O1294       O  0.05017947  0.81326873  0.78379475    -0.71900
O1295       O  0.04959432  0.76079037  0.78430213    -0.71700
O1296       O  0.04831551  0.81169917  0.71315352    -0.71700
O1297       O  0.50036153  0.78813537  0.71319646    -0.71700
O1298       O  0.00164081  0.73724422  0.78474839    -0.71700
O1299       O  0.00222984  0.78929494  0.78425183    -0.71600
O1300       O  0.49984735  0.73561489  0.71362023    -0.71800
V1301       V  0.04802256  0.78589204  0.74861684     1.35200
V1302       V  0.50200810  0.76301756  0.74878053     1.35200
C1303       C  0.02366828  0.73771152  0.70333626     0.77600
C1304       C  0.02637162  0.81116891  0.79477704     0.77700
C1305       C  0.02558344  0.73933753  0.79545908     0.77500
C1306       C  0.02438716  0.80978760  0.70275224     0.77500
C1307       C  0.32970120  0.52520698  0.99609932     0.03300
C1308       C  0.33094157  0.50142707  0.98146733    -0.12900
C1309       C  0.35757123  0.50106468  0.98091950     0.00800
C1310       C  0.38315083  0.52503208  0.49723540    -0.11400
C1311       C  0.38168819  0.54884829  0.51290680     0.03300
C1312       C  0.35494348  0.54892355  0.51158228    -0.10800
H1313       H  0.31114430  0.98365053  0.96941743     0.08900
H1314       H  0.40374246  0.52484449  0.49759940     0.06400
H1315       H  0.35306914  0.56668759  0.52372846     0.06200
C1316       C  0.21971612  0.52417357  0.00381311     0.03300
C1317       C  0.19492150  0.50083695  0.98800754    -0.12900
C1318       C  0.16828823  0.50104792  0.98544241     0.00800
C1319       C  0.16651302  0.52484549  0.00081797    -0.11400
C1320       C  0.19134833  0.54804603  0.51739146     0.03300
C1321       C  0.21789384  0.54752816  0.51816254    -0.10800
H1322       H  0.19705604  0.98312012  0.97618137     0.08900
H1323       H  0.14599755  0.52514691  0.99961022     0.06400
H1324       H  0.23743541  0.56523287  0.53075258     0.06200
C1325       C  0.02494354  0.71978357  0.49836263     0.03300
C1326       C  0.04874021  0.71850842  0.98424306    -0.12900
C1327       C  0.04911304  0.69189979  0.98341724     0.00800
C1328       C  0.02546414  0.66645396  0.49923190    -0.11400
C1329       C  0.00161347  0.66794601  0.51490017     0.03300
C1330       C  0.00149847  0.69466187  0.51343720    -0.10800
H1331       H  0.06649272  0.73831741  0.97222522     0.08900
H1332       H  0.02564516  0.64586825  0.49950372     0.06400
H1333       H  0.48389345  0.69666236  0.52553864     0.06200
C1334       C  0.02577748  0.82995584  0.99957337     0.03300
C1335       C  0.00286093  0.83187344  0.51531225    -0.12900
C1336       C  0.00290128  0.85871278  0.51600225     0.00800
C1337       C  0.02627342  0.88383930  0.99930469    -0.11400
C1338       C  0.04961979  0.88185014  0.98295224     0.03300
C1339       C  0.04926003  0.85487495  0.98410918    -0.10800
H1340       H  0.48544751  0.81247561  0.52827809     0.08900
H1341       H  0.02649202  0.90462539  0.99925876     0.06400
H1342       H  0.06676545  0.85271527  0.97169644     0.06200
C1343       C  0.05242134  0.69005244  0.66721190     0.03300
C1344       C  0.02759485  0.66689157  0.65125693    -0.12900
C1345       C  0.50062811  0.66659405  0.64963743     0.00800
C1346       C  0.49893290  0.69025779  0.66560218    -0.11400
C1347       C  0.02424267  0.71387946  0.68249483     0.03300
C1348       C  0.05083862  0.71348791  0.68224370    -0.10800
H1349       H  0.02961600  0.64921271  0.63911088     0.08900
H1350       H  0.47836262  0.69047660  0.66499867     0.06400
H1351       H  0.07051815  0.73118036  0.69461589     0.06200
C1352       C  0.16248753  0.69102867  0.66747341     0.03300
C1353       C  0.16419764  0.66791849  0.65163104    -0.12900
C1354       C  0.19096070  0.66790603  0.65048853     0.00800
C1355       C  0.21629246  0.69145016  0.66677375    -0.11400
C1356       C  0.21446304  0.71470913  0.68357267     0.03300
C1357       C  0.18738979  0.71416913  0.68341152    -0.10800
H1358       H  0.14451416  0.65023870  0.63924860     0.08900
H1359       H  0.23710112  0.69169956  0.66632408     0.06400
H1360       H  0.18536317  0.73164045  0.69614668     0.06200
O1361       O  0.21441626  0.59420198  0.54782714    -0.71600
O1362       O  0.21575216  0.64700472  0.61820293    -0.71900
O1363       O  0.21593504  0.59493326  0.61827913    -0.71700
O1364       O  0.21429951  0.64589746  0.54769172    -0.71700
O1365       O  0.16633645  0.62208502  0.54784021    -0.71700
O1366       O  0.16796675  0.57085950  0.61835059    -0.71700
O1367       O  0.16778710  0.62252756  0.61838557    -0.71600
O1368       O  0.16645204  0.56979320  0.54783852    -0.71800
V1369       V  0.21414963  0.62004664  0.58289338     1.35200
V1370       V  0.16805684  0.59679059  0.58316412     1.35200
C1371       C  0.19046775  0.57201165  0.53751255     0.77600
C1372       C  0.19175305  0.64454961  0.62897651     0.77700
C1373       C  0.19201455  0.57304397  0.62881004     0.77500
C1374       C  0.19034467  0.64390770  0.53730646     0.77500
C1375       C  0.35830291  0.88628596  0.66448494     0.03300
C1376       C  0.38206095  0.88499946  0.64990320    -0.12900
C1377       C  0.38232013  0.85835497  0.64896099     0.00800
C1378       C  0.35856442  0.83286385  0.66479613    -0.11400
C1379       C  0.33481247  0.83441090  0.68073046     0.03300
C1380       C  0.33489698  0.86122560  0.67965183    -0.10800
H1381       H  0.39989448  0.90484135  0.63804214     0.08900
H1382       H  0.35862667  0.81221937  0.66485680     0.06400
H1383       H  0.31706374  0.86309884  0.69159302     0.06200
C1384       C  0.35900896  0.99624546  0.66674418     0.03300
C1385       C  0.38186271  0.52102926  0.65034866    -0.12900
C1386       C  0.38136295  0.54750261  0.64804306     0.00800
C1387       C  0.35751907  0.54900198  0.66363488    -0.11400
C1388       C  0.33434635  0.52386660  0.68064188     0.03300
C1389       C  0.33520243  0.99751410  0.68124282    -0.10800
H1390       H  0.39975405  0.51920328  0.63850412     0.08900
H1391       H  0.35702408  0.56941281  0.66261247     0.06400
H1392       H  0.31776616  0.97794815  0.69405560     0.06200
O1393       O  0.48167802  0.88368684  0.54769813    -0.71600
O1394       O  0.42825883  0.88190723  0.61781653    -0.71900
O1395       O  0.47998463  0.88176437  0.61829919    -0.71700
O1396       O  0.42935890  0.88393626  0.54732117    -0.71700
O1397       O  0.40539680  0.83599900  0.54673346    -0.71700
O1398       O  0.45604126  0.83382455  0.61754294    -0.71700
O1399       O  0.40392536  0.83396975  0.61718919    -0.71600
O1400       O  0.45710213  0.83575809  0.54703696    -0.71800
V1401       V  0.45437666  0.88190644  0.58283009     1.35200
V1402       V  0.43110546  0.83584438  0.58202206     1.35200
C1403       C  0.47934083  0.85971091  0.53691081     0.77600
C1404       C  0.40614463  0.85784743  0.62802888     0.77700
C1405       C  0.47772573  0.85768327  0.62863301     0.77500
C1406       C  0.40741370  0.86004346  0.53670910     0.77500
O1407       O  0.40250524  0.59341307  0.61587806    -0.71600
O1408       O  0.45620352  0.64570669  0.54657814    -0.71900
O1409       O  0.40416464  0.59404504  0.54527010    -0.71700
O1410       O  0.45490415  0.64561669  0.61717302    -0.71700
O1411       O  0.47866140  0.62157217  0.61673772    -0.71700
O1412       O  0.42745190  0.56953186  0.54532883    -0.71700
O1413       O  0.47999181  0.62169640  0.54610552    -0.71600
O1414       O  0.42669599  0.56980363  0.61593433    -0.71800
V1415       V  0.42991215  0.61922411  0.58112819     1.35200
V1416       V  0.45273496  0.59611102  0.58110866     1.35200
C1417       C  0.40474323  0.57172490  0.62649395     0.77600
C1418       C  0.47803162  0.64361957  0.53584354     0.77700
C1419       C  0.40600133  0.57211231  0.53448213     0.77500
C1420       C  0.47652969  0.64329090  0.62782224     0.77500
C1421       C  0.22026170  0.72058797  0.00139788     0.03300
C1422       C  0.19545515  0.71895449  0.98549483    -0.12900
C1423       C  0.16850230  0.69218924  0.98401077     0.00800
C1424       C  0.16644171  0.66679749  0.00025729    -0.11400
C1425       C  0.19130125  0.66847383  0.51657793     0.03300
C1426       C  0.21809407  0.69545591  0.51640634    -0.10800
H1427       H  0.19759731  0.73869732  0.97334058     0.08900
H1428       H  0.14572453  0.64602708  0.99974066     0.06400
H1429       H  0.23760201  0.69732323  0.52896883     0.06200
C1430       C  0.33004154  0.83096754  0.00275098     0.03300
C1431       C  0.35536768  0.83280401  0.51753649    -0.12900
C1432       C  0.38258577  0.85931956  0.51670759     0.00800
C1433       C  0.38424675  0.88424339  0.99938831    -0.11400
C1434       C  0.35861578  0.88233087  0.98385541     0.03300
C1435       C  0.33165977  0.85562835  0.98646338    -0.10800
H1436       H  0.35357046  0.81326895  0.52987543     0.08900
H1437       H  0.40517026  0.90476499  0.99815253     0.06400
H1438       H  0.31174746  0.85350630  0.97479166     0.06200
C1439       C  0.49758802  0.85747872  0.83464683     0.03300
C1440       C  0.02295024  0.88149620  0.84891689    -0.12900
C1441       C  0.05008249  0.88214991  0.84863252     0.00800
C1442       C  0.05167124  0.85865947  0.83195989    -0.11400
C1443       C  0.02596163  0.83467728  0.81664424     0.03300
C1444       C  0.49906403  0.83417935  0.81893512    -0.10800
H1445       H  0.02105064  0.89911875  0.86143057     0.08900
H1446       H  0.07253762  0.85905145  0.83090041     0.06400
H1447       H  0.47911975  0.81628909  0.80728581     0.06200
C1448       C  0.38825240  0.85837657  0.83269047     0.03300
C1449       C  0.36325934  0.83500721  0.81712286    -0.12900
C1450       C  0.33647711  0.83505528  0.81555273     0.00800
C1451       C  0.33472120  0.85857493  0.83158974    -0.11400
C1452       C  0.35986816  0.88197456  0.84822429     0.03300
C1453       C  0.38660057  0.88179994  0.84779034    -0.10800
H1454       H  0.36522227  0.81732053  0.80490715     0.08900
H1455       H  0.31406646  0.85863949  0.83119027     0.06400
H1456       H  0.40614836  0.89937977  0.86051433     0.06200
O1457       O  0.38255218  0.97983728  0.95004003    -0.71600
O1458       O  0.38244676  0.92731161  0.88031034    -0.71900
O1459       O  0.38172932  0.97871745  0.87948532    -0.71700
O1460       O  0.38316290  0.92799349  0.95096456    -0.71700
O1461       O  0.33521355  0.90362450  0.95037219    -0.71700
O1462       O  0.33377468  0.95454342  0.87908398    -0.71700
O1463       O  0.33448376  0.90266081  0.87964482    -0.71600
O1464       O  0.33458495  0.95517095  0.94969433    -0.71800
V1465       V  0.38152080  0.95297315  0.91510064     1.35200
V1466       V  0.33543600  0.92944082  0.91479116     1.35200
C1467       C  0.35842454  0.97736796  0.96027105     0.77600
C1468       C  0.35868567  0.90525473  0.86940713     0.77700
C1469       C  0.35774457  0.97646797  0.86862084     0.77500
C1470       C  0.35922227  0.90613744  0.96160664     0.77500
C1471       C  0.19407512  0.55483946  0.83377401     0.03300
C1472       C  0.21678715  0.55276711  0.81723758    -0.12900
C1473       C  0.21664969  0.52589707  0.81611861     0.00800
C1474       C  0.19328816  0.00077817  0.83292226    -0.11400
C1475       C  0.17020952  0.00278332  0.84993242     0.03300
C1476       C  0.17083003  0.52989459  0.84959525    -0.10800
H1477       H  0.23409041  0.57213743  0.80398025     0.08900
H1478       H  0.19299263  0.97995496  0.83261019     0.06400
H1479       H  0.15363028  0.53208057  0.86281261     0.06200
C1480       C  0.19300246  0.66433288  0.83391383     0.03300
C1481       C  0.16967847  0.66603924  0.84929204    -0.12900
C1482       C  0.16934331  0.69269042  0.84975151     0.00800
C1483       C  0.19294451  0.71798986  0.83349100    -0.11400
C1484       C  0.21660160  0.71628593  0.81758389     0.03300
C1485       C  0.21644910  0.68943547  0.81876714    -0.10800
H1486       H  0.15216302  0.64650996  0.86204931     0.08900
H1487       H  0.19284655  0.73861569  0.83310817     0.01000
H1488       H  0.23403963  0.68744695  0.80631618     0.06200
O1489       O  0.09482486  0.71539720  0.95200355    -0.71600
O1490       O  0.14766210  0.71727394  0.88118968    -0.71900
O1491       O  0.09513145  0.71711533  0.88142869    -0.71700
O1492       O  0.14663226  0.71550909  0.95177752    -0.71700
O1493       O  0.12279049  0.66757067  0.95130667    -0.71700
O1494       O  0.07140142  0.66918497  0.88093043    -0.71700
O1495       O  0.12338794  0.66933935  0.88072442    -0.71600
O1496       O  0.07055109  0.66745621  0.95146069    -0.71800
V1497       V  0.12060499  0.71539574  0.91663667     1.35200
V1498       V  0.09751453  0.66933424  0.91599331     1.35200
C1499       C  0.07282750  0.69134726  0.96237156     0.77600
C1500       C  0.14549810  0.69336573  0.87049291     0.77700
C1501       C  0.07326030  0.69313749  0.87078903     0.77500
C1502       C  0.14446362  0.69150517  0.96229129     0.77500
O1503       O  0.09640631  0.90390195  0.88032410    -0.71600
O1504       O  0.14684725  0.95622209  0.95218126    -0.71900
O1505       O  0.09512974  0.90418647  0.95098730    -0.71700
O1506       O  0.14870679  0.95654327  0.88150061    -0.71700
O1507       O  0.12443014  0.98006558  0.88130684    -0.71700
O1508       O  0.07087064  0.92772726  0.95075230    -0.71700
O1509       O  0.12298952  0.98016220  0.95193637    -0.71600
O1510       O  0.07261222  0.92790067  0.88008852    -0.71800
V1511       V  0.12132199  0.93069364  0.91629878     1.35200
V1512       V  0.09819364  0.95349337  0.91590218     1.35200
C1513       C  0.07466841  0.90600864  0.86952260     0.77600
C1514       C  0.14451738  0.97786417  0.96309923     0.77700
C1515       C  0.07314346  0.90608902  0.96149700     0.77500
C1516       C  0.14652619  0.97829343  0.87096808     0.77500
O1517       O  0.31374679  0.78962859  0.78362049    -0.71600
O1518       O  0.26103866  0.73640443  0.71424934    -0.71900
O1519       O  0.31362547  0.78855447  0.71302473    -0.71700
O1520       O  0.26162000  0.73806788  0.78480884    -0.71700
O1521       O  0.23789179  0.76213696  0.78530757    -0.71700
O1522       O  0.28952716  0.81225468  0.71303013    -0.71700
O1523       O  0.23736697  0.76053884  0.71478013    -0.71600
O1524       O  0.29047465  0.81416029  0.78365907    -0.71800
V1525       V  0.28703708  0.76363263  0.74899946     1.35200
V1526       V  0.26429432  0.78682646  0.74908534     1.35200
C1527       C  0.31208348  0.81170863  0.79417836     0.77600
C1528       C  0.23912628  0.73849461  0.70421014     0.77700
C1529       C  0.31132523  0.81015190  0.70220105     0.77500
C1530       C  0.24002459  0.74039907  0.79592337     0.77500
C1531       C  0.16964027  0.58380001  0.82034422    -0.26200
C1532       C  0.19422193  0.58309263  0.83394394    -0.14300
C1533       C  0.21853152  0.60916263  0.84737686     0.36400
C1534       C  0.21768856  0.63549537  0.84696991    -0.25600
C1535       C  0.19302122  0.63616013  0.83356235    -0.14900
C1536       C  0.16891898  0.61018789  0.81962425     0.37500
N1537       N  0.14413282  0.61088006  0.80421393    -0.89100
H1538       H  0.15120382  0.56376627  0.80964231     0.18600
H1539       H  0.23615006  0.65553325  0.85762673     0.18600
N1540       N  0.24371644  0.60866324  0.86180285    -0.88100
H1541       H  0.12827752  0.58988977  0.79521693     0.35900
H1542       H  0.15177082  0.62450763  0.78182340     0.41000
H1543       H  0.23665765  0.59518080  0.88433737     0.40700
H1544       H  0.25974399  0.62973784  0.87035589     0.35500
C1545       C  0.41803503  0.83608224  0.85184429    -0.26200
C1546       C  0.41634912  0.85834408  0.83315417    -0.14300
C1547       C  0.44138436  0.88042004  0.81526387     0.36400
C1548       C  0.46787263  0.87992367  0.81662608    -0.25600
C1549       C  0.46953666  0.85758351  0.83509000    -0.14900
C1550       C  0.44458030  0.83560668  0.85322374     0.37500
N1551       N  0.44646482  0.81320783  0.87317707    -0.89100
H1552       H  0.39869408  0.81932980  0.86572422     0.18600
H1553       H  0.48718690  0.89667057  0.80269419     0.18600
N1554       N  0.43960456  0.90291744  0.79540291    -0.88100
H1555       H  0.42611542  0.79871969  0.88492684     0.35900
H1556       H  0.46143245  0.82371139  0.89395552     0.41000
H1557       H  0.42479154  0.89252185  0.77445984     0.40700
H1558       H  0.46002479  0.91751660  0.78388786     0.35500
C1559       C  0.26255090  0.76036793  0.53385538    -0.26200
C1560       C  0.24861558  0.74861644  0.00151894    -0.14300
C1561       C  0.26161443  0.76335028  0.96948143     0.36400
C1562       C  0.28804645  0.79048106  0.97069149    -0.25600
C1563       C  0.30195675  0.80268604  0.00316776    -0.14900
C1564       C  0.28921895  0.78738941  0.53529650     0.37500
N1565       N  0.30324556  0.79950844  0.56888301    -0.89100
H1566       H  0.25237625  0.74864015  0.55823818     0.18600
H1567       H  0.29819899  0.80195157  0.94616913     0.18600
N1568       N  0.24813853  0.75044562  0.93591516    -0.88100
H1569       H  0.29106016  0.78540609  0.58970533     0.35900
H1570       H  0.30312195  0.81920954  0.57282555     0.41000
H1571       H  0.24856559  0.73079882  0.93309027     0.40700
H1572       H  0.26054519  0.76414788  0.91491876     0.35500
C1573       C  0.35972551  0.92769563  0.69722686    -0.26200
C1574       C  0.35812552  0.91422741  0.66444076    -0.14300
C1575       C  0.35713099  0.92796732  0.63254677     0.36400
C1576       C  0.35791509  0.95495839  0.63438364    -0.25600
C1577       C  0.35943406  0.96841330  0.66712913    -0.14900
C1578       C  0.36065835  0.95479894  0.69904663     0.37500
N1579       N  0.36403951  0.96818116  0.73342517    -0.89100
H1580       H  0.36091086  0.91732108  0.72161308     0.18600
H1581       H  0.35673347  0.96530244  0.60996829     0.18600
N1582       N  0.35426157  0.91487850  0.59807613    -0.88100
H1583       H  0.34462546  0.95512960  0.74775970     0.35900
H1584       H  0.36679627  0.48929049  0.73178420     0.41000
H1585       H  0.35126837  0.89365991  0.59955883     0.40700
H1586       H  0.37393299  0.92801105  0.58423168     0.35500
C1587       C  0.09367103  0.68997555  0.63533180    -0.26200
C1588       C  0.08044098  0.69003591  0.66765867    -0.14300
C1589       C  0.09414599  0.69039780  0.69996228     0.36400
C1590       C  0.12119894  0.69108113  0.69949167    -0.25600
C1591       C  0.13443570  0.69101846  0.66715155    -0.14900
C1592       C  0.12067419  0.69059220  0.63484686     0.37500
N1593       N  0.13443286  0.69143956  0.60161449    -0.89100
H1594       H  0.08319903  0.68988223  0.61043851     0.18600
H1595       H  0.13166546  0.69116578  0.72438329     0.18600
N1596       N  0.08024224  0.68934913  0.73314936    -0.88100
H1597       H  0.13768460  0.71008752  0.58763182     0.35900
H1598       H  0.11983790  0.67273646  0.58696514     0.41000
H1599       H  0.09475296  0.70797729  0.74796355     0.40700
H1600       H  0.07696121  0.67063178  0.74699430     0.35500
C1601       C  0.04716954  0.77204329  0.01686693    -0.26200
C1602       C  0.02494534  0.74785039  0.49841278    -0.14300
C1603       C  0.50303562  0.75074679  0.48101922     0.36400
C1604       C  0.50354537  0.77774335  0.48240779    -0.25600
C1605       C  0.02554996  0.80173119  0.99988425    -0.14900
C1606       C  0.04769533  0.79905556  0.01787893     0.37500
N1607       N  0.07036183  0.82368692  0.03735601    -0.89100
H1608       H  0.06404028  0.76972474  0.03073694     0.18600
H1609       H  0.48667562  0.78016630  0.46869467     0.18600
N1610       N  0.48040475  0.72624188  0.46132872    -0.88100
H1611       H  0.08582934  0.81810625  0.54821233     0.35900
H1612       H  0.06112808  0.82849205  0.55800265     0.41000
H1613       H  0.49082007  0.72141695  0.94016796     0.40700
H1614       H  0.46579364  0.73155523  0.94910330     0.35500
C1615       C  0.27017359  0.54481727  0.98075636    -0.26200
C1616       C  0.24795608  0.52458922  0.00339258    -0.14300
C1617       C  0.25260529  0.50435268  0.52372053     0.36400
C1618       C  0.27944402  0.50490307  0.52003641    -0.25600
C1619       C  0.30159702  0.52507540  0.99707023    -0.14900
C1620       C  0.29694705  0.54526430  0.97710394     0.37500
N1621       N  0.31849937  0.56614544  0.95270571    -0.89100
H1622       H  0.26639816  0.56002728  0.96518408     0.18600
H1623       H  0.28325232  0.98965286  0.53548738     0.18600
N1624       N  0.23112769  0.98354345  0.54825243    -0.88100
H1625       H  0.30900201  0.56125847  0.92736871     0.35900
H1626       H  0.33719117  0.56395583  0.95104163     0.41000
H1627       H  0.21240281  0.98569152  0.54982037     0.40700
H1628       H  0.24065554  0.98861393  0.57357115     0.35500
C1629       C  0.44375451  0.63303656  0.85264074    -0.26200
C1630       C  0.46828881  0.63550236  0.83450030    -0.14300
C1631       C  0.46592425  0.61105242  0.81588122     0.36400
C1632       C  0.43904422  0.58423954  0.81634048    -0.25600
C1633       C  0.41451010  0.58174098  0.83445075    -0.14900
C1634       C  0.41679071  0.60621917  0.85294839     0.37500
N1635       N  0.39182708  0.60358226  0.87214516    -0.89100
H1636       H  0.44581793  0.65198358  0.86687710     0.18600
H1637       H  0.43698080  0.56533652  0.80199473     0.18600
N1638       N  0.49070517  0.61377631  0.79617370    -0.88100
H1639       H  0.39719537  0.62364295  0.88427187     0.35900
H1640       H  0.38698604  0.58832381  0.89261357     0.41000
H1641       H  0.99543490  0.62894727  0.77571996     0.40700
H1642       H  0.48529587  0.59372540  0.78399117     0.35500
C1643       C  0.11109770  0.96656013  0.68092145    -0.26200
C1644       C  0.13558801  0.96806558  0.66383103    -0.14300
C1645       C  0.13334327  0.94267967  0.64782327     0.36400
C1646       C  0.10649014  0.91595358  0.64969954    -0.25600
C1647       C  0.08197513  0.91448529  0.66669767    -0.14900
C1648       C  0.08423626  0.93987361  0.68270585     0.37500
N1649       N  0.05935321  0.93829179  0.70097033    -0.89100
H1650       H  0.11316342  0.98617302  0.69340384     0.18600
H1651       H  0.10441137  0.89632972  0.63723392     0.18600
N1652       N  0.15817750  0.94432820  0.62935635    -0.88100
H1653       H  0.06471775  0.95898454  0.71115316     0.35900
H1654       H  0.05465329  0.92426581  0.72278258     0.41000
H1655       H  0.16275216  0.95834545  0.60755788     0.40700
H1656       H  0.15280808  0.92364722  0.61912783     0.35500
C1657       C  0.55347374  0.38673662  0.16737879     0.03300
C1658       C  0.55195695  0.36141530  0.18133309    -0.12900
C1659       C  0.52532308  0.33429940  0.18116119     0.00800
C1660       C  0.00014439  0.33265755  0.16523497    -0.11400
C1661       C  0.00192690  0.35824360  0.14995542     0.03300
C1662       C  0.52853924  0.38520445  0.15206637    -0.10800
H1663       H  0.57156784  0.36334457  0.19368297     0.08900
H1664       H  0.97945601  0.31186206  0.16462218     0.06400
H1665       H  0.53058858  0.40505513  0.14034529     0.06200
C1666       C  0.66340685  0.49655292  0.16494975     0.03300
C1667       C  0.68845085  0.99824735  0.18002706    -0.12900
C1668       C  0.71532526  0.02506347  0.18126576     0.00800
C1669       C  0.71697141  0.05047976  0.16562549    -0.11400
C1670       C  0.69154448  0.04868109  0.14970364     0.03300
C1671       C  0.66483275  0.02164140  0.15036470    -0.10800
H1672       H  0.68644757  0.47853778  0.19213689     0.08900
H1673       H  0.73766212  0.07128083  0.16583546     0.06400
H1674       H  0.64509862  0.01955446  0.13818037     0.06200
C1675       C  0.99606702  0.16371444  0.33491069     0.03300
C1676       C  0.52125525  0.16568003  0.34998045    -0.12900
C1677       C  0.54844052  0.19228666  0.34975535     0.00800
C1678       C  0.55020465  0.21728652  0.33275576    -0.11400
C1679       C  0.52471141  0.21535026  0.31680422     0.03300
C1680       C  0.49770347  0.18864158  0.31909536    -0.10800
H1681       H  0.51923217  0.14621727  0.36280457     0.08900
H1682       H  0.57111358  0.23783819  0.33172835     0.06400
H1683       H  0.97792497  0.18638985  0.30702715     0.06200
C1684       C  0.88638672  0.05310986  0.33341952     0.03300
C1685       C  0.88496206  0.02798962  0.34792682    -0.12900
C1686       C  0.85845146  0.50072701  0.34786319     0.00800
C1687       C  0.83322728  0.49872591  0.33100046    -0.11400
C1688       C  0.83485657  0.02414002  0.31521858     0.03300
C1689       C  0.86150838  0.05119470  0.31742799    -0.10800
H1690       H  0.90453228  0.03023567  0.36076666     0.08900
H1691       H  0.81269033  0.47779060  0.33023112     0.06400
H1692       H  0.86349727  0.07093971  0.30547028     0.06200
O1693       O  0.78876814  0.49955987  0.28288225    -0.71600
O1694       O  0.73731088  0.00160289  0.21286328    -0.71900
O1695       O  0.78868680  0.00082591  0.21219951    -0.71700
O1696       O  0.73690775  0.50041563  0.28351348    -0.71700
O1697       O  0.76169484  0.04834559  0.28338247    -0.71700
O1698       O  0.81345941  0.04876936  0.21225946    -0.71700
O1699       O  0.76166440  0.04953924  0.21279236    -0.71600
O1700       O  0.81302059  0.04748747  0.28289225    -0.71800
V1701       V  0.76337948  0.50152462  0.24777237     1.35200
V1702       V  0.78698852  0.04758609  0.24790804     1.35200
C1703       C  0.81070293  0.02344586  0.29355055     0.77600
C1704       C  0.73964237  0.02566380  0.20229660     0.77700
C1705       C  0.81080678  0.02467567  0.20156633     0.77500
C1706       C  0.73965767  0.02456580  0.29425286     0.77500
O1707       O  0.54784507  0.25950386  0.21245233    -0.71600
O1708       O  0.55022210  0.31304295  0.28260518    -0.71900
O1709       O  0.54960998  0.26054847  0.28312976    -0.71700
O1710       O  0.54839567  0.31153964  0.21198150    -0.71700
O1711       O  0.00045178  0.28805051  0.21278697    -0.71700
O1712       O  0.50165871  0.23703781  0.28355981    -0.71700
O1713       O  0.50227127  0.28909519  0.28298481    -0.71600
O1714       O  0.99987812  0.23551372  0.21332675    -0.71800
V1715       V  0.54807861  0.28567823  0.24742314     1.35200
V1716       V  0.00197270  0.26291361  0.24844186     1.35200
C1717       C  0.52373647  0.23746681  0.20222305     0.77600
C1718       C  0.52640811  0.31095887  0.29353472     0.77700
C1719       C  0.52558628  0.23914388  0.29435446     0.77500
C1720       C  0.52445907  0.30966583  0.20166856     0.77500
C1721       C  0.82985585  0.02532052  0.49686421     0.03300
C1722       C  0.83115647  0.00160424  0.48215427    -0.12900
C1723       C  0.85780428  0.00128761  0.48155341     0.00800
C1724       C  0.88309579  0.02463312  0.99730632    -0.11400
C1725       C  0.88159926  0.04837403  0.01318741     0.03300
C1726       C  0.85486479  0.04846781  0.01183261    -0.10800
H1727       H  0.81136862  0.48381583  0.47008142     0.08900
H1728       H  0.90368641  0.02444414  0.99764025     0.06400
H1729       H  0.85297024  0.06619421  0.02405546     0.06200
C1730       C  0.71954504  0.02376180  0.50358537     0.03300
C1731       C  0.69484136  0.00047576  0.48754636    -0.12900
C1732       C  0.66822131  0.00070061  0.48475283     0.00800
C1733       C  0.66638233  0.02449648  0.50004643    -0.11400
C1734       C  0.69170434  0.04830474  0.01711473     0.03300
C1735       C  0.71823478  0.04775997  0.01770959    -0.10800
H1736       H  0.69702926  0.48277931  0.47576225     0.08900
H1737       H  0.64588678  0.02482248  0.49863066     0.06400
H1738       H  0.73784496  0.06548625  0.03015947     0.06200
C1739       C  0.52507610  0.21981859  0.99878980     0.03300
C1740       C  0.54900739  0.21867072  0.48415442    -0.12900
C1741       C  0.54925958  0.19201673  0.48321858     0.00800
C1742       C  0.52549375  0.16641572  0.99896914    -0.11400
C1743       C  0.50158559  0.16780051  0.01461827     0.03300
C1744       C  0.50153501  0.19456437  0.01351788    -0.10800
H1745       H  0.56676297  0.23846321  0.47210915     0.08900
H1746       H  0.52562386  0.14580283  0.99896889     0.06400
H1747       H  0.98345172  0.19625129  0.02534910     0.06200
C1748       C  0.52636511  0.33015771  0.50046399     0.03300
C1749       C  0.50248323  0.33175425  0.01476713    -0.12900
C1750       C  0.50256410  0.35861691  0.01552066     0.00800
C1751       C  0.52656983  0.38385748  0.49937428    -0.11400
C1752       C  0.54990232  0.38180627  0.48302822     0.03300
C1753       C  0.54967453  0.35492645  0.48458479    -0.10800
H1754       H  0.98470490  0.31217284  0.02705350     0.08900
H1755       H  0.52666049  0.40457675  0.49895653     0.06400
H1756       H  0.56710384  0.35268400  0.47208863     0.06200
C1757       C  0.55231748  0.18940793  0.16704792     0.03300
C1758       C  0.52751762  0.16628495  0.15096837    -0.12900
C1759       C  0.00092365  0.16660134  0.14938360     0.00800
C1760       C  0.99912027  0.19019073  0.16538425    -0.11400
C1761       C  0.52429189  0.21352033  0.18165531     0.03300
C1762       C  0.55078812  0.21294989  0.18182241    -0.10800
H1763       H  0.52949797  0.14853032  0.13897953     0.08900
H1764       H  0.97849792  0.19030863  0.16482422     0.06400
H1765       H  0.57044162  0.23062054  0.19426630     0.06200
C1766       C  0.66260606  0.19086652  0.16755221     0.03300
C1767       C  0.66439420  0.16783249  0.15162221    -0.12900
C1768       C  0.69115747  0.16781239  0.15062696     0.00800
C1769       C  0.71640920  0.19127650  0.16712501    -0.11400
C1770       C  0.71449157  0.21445794  0.18399040     0.03300
C1771       C  0.68742914  0.21393496  0.18368370    -0.10800
H1772       H  0.64476461  0.15020479  0.13908689     0.08900
H1773       H  0.73722027  0.19152866  0.16678011     0.06400
H1774       H  0.68534413  0.23135844  0.19645813     0.06200
O1775       O  0.71481235  0.09437097  0.04777285    -0.71600
O1776       O  0.71604198  0.14698449  0.11836982    -0.71900
O1777       O  0.71618571  0.09488952  0.11826671    -0.71700
O1778       O  0.71469530  0.14608409  0.04783505    -0.71700
O1779       O  0.66672980  0.12220195  0.04782433    -0.71700
O1780       O  0.66821839  0.07089775  0.11826198    -0.71700
O1781       O  0.66807606  0.12254284  0.11836142    -0.71600
O1782       O  0.66684609  0.06996066  0.04773865    -0.71800
V1783       V  0.71449246  0.12012055  0.08294968     1.35200
V1784       V  0.66839829  0.09687558  0.08310780     1.35200
C1785       C  0.69086577  0.07222021  0.03737389     0.77600
C1786       C  0.69201978  0.14451955  0.12907154     0.77700
C1787       C  0.69222374  0.07304789  0.12881014     0.77500
C1788       C  0.69073495  0.14406754  0.03739051     0.77500
C1789       C  0.85775659  0.38576234  0.16400648     0.03300
C1790       C  0.88184433  0.38464606  0.15014878    -0.12900
C1791       C  0.88210385  0.35801278  0.14904010     0.00800
C1792       C  0.85822361  0.33242942  0.16455690    -0.11400
C1793       C  0.83430338  0.33387153  0.18016280     0.03300
C1794       C  0.83417590  0.36055472  0.17869536    -0.10800
H1795       H  0.89993786  0.40461604  0.13887324     0.08900
H1796       H  0.85835699  0.31182120  0.16471338     0.06400
H1797       H  0.81610154  0.36225880  0.19018685     0.06200
C1798       C  0.85927366  0.49622469  0.16748567     0.03300
C1799       C  0.88240465  0.02116397  0.15161479    -0.12900
C1800       C  0.88177971  0.04754400  0.14885909     0.00800
C1801       C  0.85777036  0.04898767  0.16404980    -0.11400
C1802       C  0.83439471  0.02378008  0.18069984     0.03300
C1803       C  0.83513115  0.49737183  0.18111948    -0.10800
H1804       H  0.90055489  0.01949033  0.14031719     0.08900
H1805       H  0.85727029  0.06939283  0.16292696     0.06400
H1806       H  0.81734290  0.47766890  0.19327783     0.06200
O1807       O  0.98150349  0.38359125  0.04769081    -0.71600
O1808       O  0.92811671  0.38172286  0.11796300    -0.71900
O1809       O  0.97996255  0.38172322  0.11832430    -0.71700
O1810       O  0.92925635  0.38386185  0.04742536    -0.71700
O1811       O  0.90525826  0.33592434  0.04686162    -0.71700
O1812       O  0.95611421  0.33378731  0.11748085    -0.71700
O1813       O  0.90389757  0.33378688  0.11734575    -0.71600
O1814       O  0.95689080  0.33566317  0.04694808    -0.71800
V1815       V  0.95426522  0.38180693  0.08291318     1.35200
V1816       V  0.93102938  0.33574669  0.08207289     1.35200
C1817       C  0.97907314  0.35961004  0.03674738     0.77600
C1818       C  0.90603826  0.35762444  0.12818762     0.77700
C1819       C  0.97779280  0.35766734  0.12858410     0.77500
C1820       C  0.90734346  0.35998749  0.03674689     0.77500
O1821       O  0.90274994  0.09324451  0.11632364    -0.71600
O1822       O  0.95598791  0.14528457  0.04654525    -0.71900
O1823       O  0.90402181  0.09353654  0.04566877    -0.71700
O1824       O  0.95509468  0.14546114  0.11712536    -0.71700
O1825       O  0.97891802  0.12148233  0.11664262    -0.71700
O1826       O  0.92740399  0.06911969  0.04561829    -0.71700
O1827       O  0.97989677  0.12139595  0.04601870    -0.71600
O1828       O  0.92695631  0.06965249  0.11630628    -0.71800
V1829       V  0.92992840  0.11890119  0.08131483     1.35200
V1830       V  0.95282212  0.09586055  0.08122534     1.35200
C1831       C  0.90507342  0.07163671  0.12704731     0.77600
C1832       C  0.97784278  0.14327666  0.03576747     0.77700
C1833       C  0.90589437  0.07163001  0.03483669     0.77500
C1834       C  0.97679350  0.14321629  0.12767753     0.77500
C1835       C  0.72021758  0.22070314  0.50085922     0.03300
C1836       C  0.69540606  0.21915000  0.48506198    -0.12900
C1837       C  0.66845842  0.19237685  0.48345199     0.00800
C1838       C  0.66636961  0.16691763  0.49949571    -0.11400
C1839       C  0.69162916  0.16863730  0.01673881     0.03300
C1840       C  0.71831664  0.19570247  0.01684519    -0.10800
H1841       H  0.69752677  0.23895156  0.47311116     0.08900
H1842       H  0.64563780  0.14616196  0.49890870     0.06400
H1843       H  0.73781632  0.19764162  0.02952241     0.06200
C1844       C  0.83003145  0.33120120  0.50369197     0.03300
C1845       C  0.85539498  0.33284990  0.01743994    -0.12900
C1846       C  0.88262446  0.35931386  0.01654591     0.00800
C1847       C  0.88430691  0.38444905  0.50017557    -0.11400
C1848       C  0.85866846  0.38255822  0.48472369     0.03300
C1849       C  0.83168819  0.35588930  0.48742179    -0.10800
H1850       H  0.85353944  0.31332895  0.02989557     0.08900
H1851       H  0.90525588  0.40493478  0.49880630     0.06400
H1852       H  0.81178890  0.35378819  0.47573666     0.06200
C1853       C  0.99755028  0.35751016  0.33408882     0.03300
C1854       C  0.52290439  0.38108917  0.34807673    -0.12900
C1855       C  0.55001454  0.38171313  0.34785126     0.00800
C1856       C  0.55164182  0.35830921  0.33098903    -0.11400
C1857       C  0.52598067  0.33445460  0.31540152     0.03300
C1858       C  0.99902934  0.33425312  0.31824632    -0.10800
H1859       H  0.52096289  0.39861223  0.36080484     0.08900
H1860       H  0.57248912  0.35865836  0.33001438     0.06400
H1861       H  0.97913733  0.31648467  0.30634629     0.06200
C1862       C  0.88837539  0.35877957  0.33254194     0.03300
C1863       C  0.86344836  0.33551991  0.31674345    -0.12900
C1864       C  0.83660126  0.33543031  0.31540274     0.00800
C1865       C  0.83473606  0.35878616  0.33177589    -0.11400
C1866       C  0.85984067  0.38210645  0.34861379     0.03300
C1867       C  0.88660559  0.38199757  0.34806345    -0.10800
H1868       H  0.86549663  0.31798020  0.30424273     0.08900
H1869       H  0.81403836  0.35876672  0.33151476     0.06400
H1870       H  0.90609335  0.39946668  0.36101232     0.06200
O1871       O  0.88272375  0.47998597  0.45061942    -0.71600
O1872       O  0.88243174  0.42734351  0.38090669    -0.71900
O1873       O  0.88175719  0.47874162  0.38003883    -0.71700
O1874       O  0.88324872  0.42810027  0.45159461    -0.71700
O1875       O  0.83529793  0.40381936  0.45115301    -0.71700
O1876       O  0.83380138  0.45453766  0.37967706    -0.71700
O1877       O  0.83446953  0.40266990  0.38038825    -0.71600
O1878       O  0.83475739  0.45538955  0.45030554    -0.71800
V1879       V  0.88159063  0.45304975  0.41569544     1.35200
V1880       V  0.83550586  0.42954638  0.41547899     1.35200
C1881       C  0.85862362  0.47756972  0.46086903     0.77600
C1882       C  0.85865439  0.40529297  0.37002028     0.77700
C1883       C  0.85775274  0.47641988  0.36911898     0.77500
C1884       C  0.85930292  0.40631637  0.46235981     0.77500
C1885       C  0.69401726  0.05463401  0.33389117     0.03300
C1886       C  0.71690264  0.05267634  0.31761599    -0.12900
C1887       C  0.71664588  0.02573863  0.31614318     0.00800
C1888       C  0.69314239  0.50051659  0.33253862    -0.11400
C1889       C  0.66997603  0.50242749  0.34939477     0.03300
C1890       C  0.67058336  0.02954505  0.34923462    -0.10800
H1891       H  0.73439951  0.07217149  0.30477571     0.08900
H1892       H  0.69279414  0.47966850  0.33203012     0.06400
H1893       H  0.65325891  0.03162957  0.36227633     0.06200
C1894       C  0.69311397  0.16428891  0.33404877     0.03300
C1895       C  0.66959547  0.16593393  0.34896195    -0.12900
C1896       C  0.66935268  0.19263966  0.34952828     0.00800
C1897       C  0.69314815  0.21800542  0.33367814    -0.11400
C1898       C  0.71692913  0.21635692  0.31809762     0.03300
C1899       C  0.71678647  0.18949837  0.31935279    -0.10800
H1900       H  0.65187339  0.14632426  0.36133840     0.08900
H1901       H  0.69308417  0.23864949  0.33331147     0.01000
H1902       H  0.73452687  0.18758023  0.30722262     0.06200
O1903       O  0.59478680  0.21548325  0.45144149    -0.71600
O1904       O  0.64759704  0.21728197  0.38065970    -0.71900
O1905       O  0.59507857  0.21714980  0.38084212    -0.71700
O1906       O  0.64659078  0.21566840  0.45121524    -0.71700
O1907       O  0.62277840  0.16772620  0.45079516    -0.71700
O1908       O  0.57130470  0.16921639  0.38048782    -0.71700
O1909       O  0.62328778  0.16934643  0.38024352    -0.71600
O1910       O  0.57055045  0.16754133  0.45104365    -0.71800
V1911       V  0.62054833  0.21546875  0.41606844     1.35200
V1912       V  0.59745861  0.16940438  0.41551821     1.35200
C1913       C  0.57285670  0.19143751  0.46196002     0.77600
C1914       C  0.64543574  0.19335025  0.37005159     0.77700
C1915       C  0.57318155  0.19316574  0.37028583     0.77500
C1916       C  0.64443466  0.19168338  0.46175268     0.77500
O1917       O  0.59625842  0.40338491  0.37974730    -0.71600
O1918       O  0.64686776  0.45590158  0.45139042    -0.71900
O1919       O  0.59515645  0.40384915  0.45048450    -0.71700
O1920       O  0.64849661  0.45608615  0.38070969    -0.71700
O1921       O  0.62416157  0.47955143  0.38059684    -0.71700
O1922       O  0.57086357  0.42735575  0.45024970    -0.71700
O1923       O  0.62292913  0.47976043  0.45121419    -0.71600
O1924       O  0.57243369  0.42735202  0.37954059    -0.71800
V1925       V  0.62123793  0.43027194  0.41562875     1.35200
V1926       V  0.59806087  0.45302300  0.41527385     1.35200
C1927       C  0.57452642  0.40549035  0.36892290     0.77600
C1928       C  0.64450114  0.47751671  0.46233621     0.77700
C1929       C  0.57323429  0.40581994  0.46113876     0.77500
C1930       C  0.64627149  0.47783042  0.37024108     0.77500
O1931       O  0.81394627  0.28991945  0.28362338    -0.71600
O1932       O  0.76101652  0.23618141  0.21478286    -0.71900
O1933       O  0.81345744  0.28833576  0.21300454    -0.71700
O1934       O  0.76195344  0.23822433  0.28534680    -0.71700
O1935       O  0.73808857  0.26215917  0.28576281    -0.71700
O1936       O  0.78925540  0.31193160  0.21293904    -0.71700
O1937       O  0.73724808  0.26022138  0.21524843    -0.71600
O1938       O  0.79052878  0.31430732  0.28360264    -0.71800
V1939       V  0.78712598  0.26363784  0.24927553     1.35200
V1940       V  0.76426291  0.28671277  0.24929235     1.35200
C1941       C  0.81221967  0.31199310  0.29409069     0.77600
C1942       C  0.73907390  0.23821082  0.20471997     0.77700
C1943       C  0.81099028  0.30977438  0.20196427     0.77500
C1944       C  0.74033507  0.24050169  0.29646516     0.77500
C1945       C  0.66993284  0.08382972  0.31975564    -0.26200
C1946       C  0.69414877  0.08289680  0.33420470    -0.14300
C1947       C  0.71809527  0.10875870  0.34858908     0.36400
C1948       C  0.71736020  0.13516221  0.34805208    -0.25600
C1949       C  0.69308139  0.13606819  0.33372714    -0.14900
C1950       C  0.66927009  0.11026120  0.31903100     0.37500
N1951       N  0.64483689  0.11116427  0.30288130    -0.89100
H1952       H  0.65174556  0.06394174  0.30841573     0.18600
H1953       H  0.73557268  0.15505331  0.35935104     0.18600
N1954       N  0.74277935  0.10795892  0.36412944    -0.88100
H1955       H  0.62915866  0.09028177  0.29339458     0.35900
H1956       H  0.65295754  0.12503672  0.28074002     0.41000
H1957       H  0.73500359  0.09417243  0.38637107     0.40700
H1958       H  0.75857491  0.12889201  0.37335523     0.35500
C1959       C  0.91776908  0.33573275  0.35033494    -0.26200
C1960       C  0.91646656  0.35872746  0.33295267    -0.14300
C1961       C  0.94183111  0.38141161  0.31622780     0.36400
C1962       C  0.96823234  0.38074053  0.31740052    -0.25600
C1963       C  0.96951635  0.35767307  0.33456430    -0.14900
C1964       C  0.94422806  0.33510195  0.35157067     0.37500
N1965       N  0.94569015  0.31195067  0.37030325    -0.89100
H1966       H  0.89818267  0.31851123  0.36334529     0.18600
H1967       H  0.98778870  0.39795154  0.30432586     0.18600
N1968       N  0.94048090  0.40470565  0.29770034    -0.88100
H1969       H  0.92513269  0.29709574  0.38131791     0.35900
H1970       H  0.96031419  0.32165789  0.39158257     0.41000
H1971       H  0.92600830  0.39516794  0.27625586     0.40700
H1972       H  0.96110768  0.41967937  0.28694538     0.35500
C1973       C  0.76263579  0.26073561  0.03422994    -0.26200
C1974       C  0.74855712  0.24878264  0.50133058    -0.14300
C1975       C  0.76166267  0.26389022  0.46951502     0.36400
C1976       C  0.78813666  0.29097884  0.47111095    -0.25600
C1977       C  0.80194160  0.30286171  0.50374951    -0.14900
C1978       C  0.78932734  0.28773187  0.03550353     0.37500
N1979       N  0.80346098  0.29998289  0.06900531    -0.89100
H1980       H  0.75247404  0.24912823  0.05867974     0.18600
H1981       H  0.79838301  0.30269591  0.44674777     0.18600
N1982       N  0.74824437  0.25142964  0.43577365    -0.88100
H1983       H  0.79131081  0.28599148  0.08992507     0.35900
H1984       H  0.80341757  0.31973664  0.07282519     0.41000
H1985       H  0.74862834  0.23179687  0.43249686     0.40700
H1986       H  0.76070905  0.26538755  0.41498562     0.35500
C1987       C  0.85586398  0.42539356  0.19710003    -0.26200
C1988       C  0.85758602  0.41374342  0.16419644    -0.14300
C1989       C  0.86007562  0.42942833  0.13258884     0.36400
C1990       C  0.86130336  0.45659656  0.13487054    -0.25600
C1991       C  0.85957296  0.46828181  0.16772313    -0.14900
C1992       C  0.85704934  0.45258619  0.19938213     0.37500
N1993       N  0.85696873  0.46393581  0.23417834    -0.89100
H1994       H  0.85436285  0.41356706  0.22137118     0.18600
H1995       H  0.86276036  0.46835739  0.11055769     0.18600
N1996       N  0.86006397  0.41806430  0.09777314    -0.88100
H1997       H  0.83590022  0.45081035  0.24502253     0.35900
H1998       H  0.86116742  0.98561804  0.23341617     0.41000
H1999       H  0.85537341  0.39621780  0.09841332     0.40700
H2000       H  0.88121858  0.43094396  0.08705204     0.35500
C2001       C  0.59367001  0.18948495  0.13530552    -0.26200
C2002       C  0.58034649  0.18941781  0.16760486    -0.14300
C2003       C  0.59411953  0.18998493  0.19993913     0.36400
C2004       C  0.62123509  0.19079731  0.19951189    -0.25600
C2005       C  0.63453301  0.19080501  0.16719094    -0.14900
C2006       C  0.62079833  0.19036952  0.13486637     0.37500
N2007       N  0.63473178  0.19152786  0.10166250    -0.89100
H2008       H  0.58320626  0.18936029  0.11039296     0.18600
H2009       H  0.63172275  0.19096704  0.22442101     0.18600
N2010       N  0.58027016  0.18909726  0.23311288    -0.88100
H2011       H  0.63785262  0.21018552  0.08781376     0.35900
H2012       H  0.62030680  0.17285098  0.08686162     0.41000
H2013       H  0.59476902  0.20785041  0.24775039     0.40700
H2014       H  0.57710613  0.17050623  0.24715559     0.35500
C2015       C  0.54775970  0.27221603  0.51707204    -0.26200
C2016       C  0.52492288  0.24782996  0.99883882    -0.14300
C2017       C  0.00251682  0.25037753  0.98071452     0.36400
C2018       C  0.00302172  0.27740021  0.98175469    -0.25600
C2019       C  0.52608975  0.30194688  0.50065821    -0.14900
C2020       C  0.54832713  0.29922964  0.51834291     0.37500
N2021       N  0.57114290  0.32382219  0.53771636    -0.89100
H2022       H  0.56465518  0.26981652  0.53075776     0.18600
H2023       H  0.98614449  0.27972316  0.96790964     0.18600
N2024       N  0.97986687  0.22573307  0.96122715    -0.88100
H2025       H  0.58443444  0.31781031  0.05039836     0.35900
H2026       H  0.55941014  0.32799231  0.05910184     0.41000
H2027       H  0.98994841  0.22135314  0.44038398     0.40700
H2028       H  0.96512624  0.23159941  0.45007612     0.35500
C2029       C  0.77019630  0.04467530  0.48105664    -0.26200
C2030       C  0.74782690  0.02423603  0.50337709    -0.14300
C2031       C  0.75268930  0.00445265  0.02374523     0.36400
C2032       C  0.77945870  0.00484867  0.02014700    -0.25600
C2033       C  0.80171778  0.02513007  0.49770641    -0.14900
C2034       C  0.79707807  0.04530251  0.47769407     0.37500
N2035       N  0.81873427  0.06632257  0.45349695    -0.89100
H2036       H  0.76645567  0.05990780  0.46548305     0.18600
H2037       H  0.78323731  0.48969147  0.03583073     0.18600
N2038       N  0.73125718  0.48395862  0.04855656    -0.88100
H2039       H  0.80941125  0.06146035  0.42806700     0.35900
H2040       H  0.83751276  0.06426925  0.45202688     0.41000
H2041       H  0.71258613  0.48620603  0.05001984     0.40700
H2042       H  0.74087773  0.48927480  0.07381965     0.35500
C2043       C  0.94332434  0.13299384  0.35200776    -0.26200
C2044       C  0.96804363  0.13532698  0.33448178    -0.14300
C2045       C  0.96590128  0.11070302  0.31651434     0.36400
C2046       C  0.93904038  0.08388939  0.31695275    -0.25600
C2047       C  0.91432780  0.08152889  0.33444669    -0.14900
C2048       C  0.91638843  0.10616162  0.35232122     0.37500
N2049       N  0.89123259  0.10366746  0.37090734    -0.89100
H2050       H  0.94522260  0.15205577  0.36578385     0.18600
H2051       H  0.93714228  0.06486459  0.30307821     0.18600
N2052       N  0.99089512  0.11323720  0.29749306    -0.88100
H2053       H  0.89645440  0.12383606  0.38261178     0.35900
H2054       H  0.88622358  0.08861633  0.39166483     0.41000
H2055       H  0.49536373  0.12846395  0.27653145     0.40700
H2056       H  0.98563063  0.09306665  0.28576048     0.35500
C2057       C  0.61104470  0.46673357  0.18289582    -0.26200
C2058       C  0.63533375  0.46837782  0.16510277    -0.14300
C2059       C  0.63287837  0.44315989  0.14838424     0.36400
C2060       C  0.60598128  0.41648101  0.15008348    -0.25600
C2061       C  0.58163185  0.41486066  0.16770315    -0.14900
C2062       C  0.58413505  0.44004597  0.18458136     0.37500
N2063       N  0.55946676  0.43825285  0.20360554    -0.89100
H2064       H  0.61330476  0.48622319  0.19595022     0.18600
H2065       H  0.60374205  0.39700043  0.13702820     0.18600
N2066       N  0.65756722  0.44493120  0.12941877    -0.88100
H2067       H  0.56501173  0.45880037  0.21443388     0.35900
H2068       H  0.55493371  0.42387984  0.22501217     0.41000
H2069       H  0.66208397  0.45922295  0.10792558     0.40700
H2070       H  0.65206658  0.42435535  0.11872208     0.35500
C2071       C  0.55358521  0.38654168  0.66691862     0.03300
C2072       C  0.55198132  0.36130790  0.68129257    -0.12900
C2073       C  0.52523380  0.33428667  0.68158790     0.00800
C2074       C  0.00004650  0.33264974  0.66573383    -0.11400
C2075       C  0.00196840  0.35813962  0.64997550     0.03300
C2076       C  0.52867389  0.38499662  0.65159419    -0.10800
H2077       H  0.57160546  0.36325494  0.69362267     0.08900
H2078       H  0.97925995  0.31194411  0.66549909     0.06400
H2079       H  0.53081556  0.40476438  0.63949922     0.06200
C2080       C  0.66335796  0.49646697  0.66408193     0.03300
C2081       C  0.68842042  0.99821353  0.67925771    -0.12900
C2082       C  0.71520897  0.02510413  0.68079023     0.00800
C2083       C  0.71678816  0.05052650  0.66522749    -0.11400
C2084       C  0.69136143  0.04866459  0.64919039     0.03300
C2085       C  0.66473427  0.02155796  0.64962602    -0.10800
H2086       H  0.68643551  0.47850825  0.69132244     0.08900
H2087       H  0.73741894  0.07138272  0.66560417     0.06400
H2088       H  0.64500518  0.01943559  0.63738113     0.06200
C2089       C  0.99626301  0.16371818  0.83491220     0.03300
C2090       C  0.52151635  0.16568096  0.84992812    -0.12900
C2091       C  0.54866648  0.19234923  0.84993283     0.00800
C2092       C  0.55038892  0.21740717  0.83314683    -0.11400
C2093       C  0.52489323  0.21547570  0.81721758     0.03300
C2094       C  0.49792775  0.18871278  0.81928989    -0.10800
H2095       H  0.51951649  0.14616884  0.86258330     0.08900
H2096       H  0.57126133  0.23800623  0.83228800     0.06400
H2097       H  0.97808725  0.18642091  0.80718466     0.06200
C2098       C  0.88653398  0.05310429  0.83280338     0.03300
C2099       C  0.88500243  0.02794903  0.84737059    -0.12900
C2100       C  0.85840564  0.50073954  0.84738024     0.00800
C2101       C  0.83321265  0.49883290  0.83053851    -0.11400
C2102       C  0.83494410  0.02427795  0.81471244     0.03300
C2103       C  0.86167627  0.05127800  0.81683148    -0.10800
H2104       H  0.90454789  0.03013683  0.86021110     0.08900
H2105       H  0.81263094  0.47793896  0.82981405     0.06400
H2106       H  0.86371973  0.07104793  0.80487932     0.06200
O2107       O  0.78871744  0.49973675  0.78259419    -0.71600
O2108       O  0.73716983  0.00169279  0.71262227    -0.71900
O2109       O  0.78854473  0.00088870  0.71195403    -0.71700
O2110       O  0.73684453  0.50055882  0.78330584    -0.71700
O2111       O  0.76169440  0.04849325  0.78316871    -0.71700
O2112       O  0.81327040  0.04883541  0.71185028    -0.71700
O2113       O  0.76148342  0.04962609  0.71253002    -0.71600
O2114       O  0.81306677  0.04766660  0.78245441    -0.71800
V2115       V  0.76326823  0.50164636  0.74751803     1.35200
V2116       V  0.78689928  0.04770970  0.74758014     1.35200
C2117       C  0.81074667  0.02362709  0.79314084     0.77600
C2118       C  0.73948728  0.02573949  0.70199998     0.77700
C2119       C  0.81065105  0.02472412  0.70128704     0.77500
C2120       C  0.73967756  0.02472130  0.79411653     0.77500
O2121       O  0.54780005  0.25966283  0.71309321    -0.71600
O2122       O  0.55026421  0.31324239  0.78327951    -0.71900
O2123       O  0.54971130  0.26077407  0.78375806    -0.71700
O2124       O  0.54831331  0.31166364  0.71264417    -0.71700
O2125       O  0.00036404  0.28819551  0.71360925    -0.71700
O2126       O  0.50175901  0.23722113  0.78428908    -0.71700
O2127       O  0.50231539  0.28924208  0.78382020    -0.71600
O2128       O  0.99982306  0.23566960  0.71406401    -0.71800
V2129       V  0.54808134  0.28585970  0.74808348     1.35200
V2130       V  0.00194724  0.26306376  0.74922665     1.35200
C2131       C  0.52367674  0.23763725  0.70287026     0.77600
C2132       C  0.52645991  0.31112362  0.79431703     0.77700
C2133       C  0.52571539  0.23933481  0.79497626     0.77500
C2134       C  0.52436291  0.30976357  0.70235244     0.77500
C2135       C  0.82977027  0.02511093  0.99650756     0.03300
C2136       C  0.83104715  0.00139314  0.98175760    -0.12900
C2137       C  0.85768262  0.00104686  0.98117259     0.00800
C2138       C  0.88323061  0.02493162  0.49758489    -0.11400
C2139       C  0.88172730  0.04868998  0.51339877     0.03300
C2140       C  0.85495816  0.04872422  0.51212209    -0.10800
H2141       H  0.81126181  0.48364854  0.96963232     0.08900
H2142       H  0.90383781  0.02477451  0.49789343     0.06400
H2143       H  0.85305233  0.06644866  0.52433126     0.06200
C2144       C  0.71970687  0.02396513  0.00366601     0.03300
C2145       C  0.69490365  0.00062533  0.98786906    -0.12900
C2146       C  0.66830172  0.00089329  0.98520169     0.00800
C2147       C  0.66657305  0.02475792  0.00044807    -0.11400
C2148       C  0.69142610  0.04802798  0.51687117     0.03300
C2149       C  0.71795542  0.04747890  0.51768664    -0.10800
H2150       H  0.69700443  0.48285533  0.97614222     0.08900
H2151       H  0.64608399  0.02510555  0.99915786     0.06400
H2152       H  0.73749334  0.06517464  0.53029299     0.06200
C2153       C  0.52524938  0.21997234  0.49866233     0.03300
C2154       C  0.54891262  0.21860728  0.98431533    -0.12900
C2155       C  0.54921675  0.19196466  0.98327577     0.00800
C2156       C  0.52557402  0.16654670  0.49910929    -0.11400
C2157       C  0.50173892  0.16804747  0.51481784     0.03300
C2158       C  0.50172348  0.19481517  0.51355450    -0.10800
H2159       H  0.56668182  0.23844576  0.97237074     0.08900
H2160       H  0.52567132  0.14591763  0.49920293     0.06400
H2161       H  0.98367245  0.19651210  0.52542461     0.06200
C2162       C  0.52583832  0.32994203  0.99980066     0.03300
C2163       C  0.50307042  0.33199068  0.51558789    -0.12900
C2164       C  0.50300338  0.35877660  0.51602701     0.00800
C2165       C  0.52623286  0.38376564  0.99912948    -0.11400
C2166       C  0.54961223  0.38176156  0.98287325     0.03300
C2167       C  0.54931050  0.35482070  0.98425985    -0.10800
H2168       H  0.98521366  0.31233991  0.52792517     0.08900
H2169       H  0.52640530  0.40452807  0.99892374     0.06400
H2170       H  0.56684001  0.35264412  0.97194654     0.06200
C2171       C  0.55221255  0.18966474  0.66718881     0.03300
C2172       C  0.52736566  0.16653623  0.65122878    -0.12900
C2173       C  0.00077741  0.16680859  0.64984074     0.00800
C2174       C  0.99899419  0.19037524  0.66595578    -0.11400
C2175       C  0.52419843  0.21372795  0.68215057     0.03300
C2176       C  0.55072433  0.21320058  0.68207291    -0.10800
H2177       H  0.52932257  0.14878552  0.63918559     0.08900
H2178       H  0.97836742  0.19048635  0.66548696     0.06400
H2179       H  0.57041626  0.23086870  0.69445378     0.06200
C2180       C  0.66226906  0.19062696  0.66746186     0.03300
C2181       C  0.66405604  0.16760612  0.65148840    -0.12900
C2182       C  0.69088230  0.16773106  0.65015301     0.00800
C2183       C  0.71620193  0.19130815  0.66642387    -0.11400
C2184       C  0.71429854  0.21447434  0.68337307     0.03300
C2185       C  0.68715877  0.21380286  0.68338157    -0.10800
H2186       H  0.64437918  0.14989919  0.63912784     0.08900
H2187       H  0.73706118  0.19166468  0.66582924     0.06400
H2188       H  0.68508117  0.23121247  0.69620566     0.06200
O2189       O  0.71448528  0.09418169  0.54733574    -0.71600
O2190       O  0.71573717  0.14695710  0.61771566    -0.71900
O2191       O  0.71590721  0.09488812  0.61781034    -0.71700
O2192       O  0.71438473  0.14590107  0.54719003    -0.71700
O2193       O  0.66642123  0.12210162  0.54726215    -0.71700
O2194       O  0.66794008  0.07081932  0.61776491    -0.71700
O2195       O  0.66777324  0.12247058  0.61781141    -0.71600
O2196       O  0.66652114  0.06980027  0.54723843    -0.71800
V2197       V  0.71417899  0.12001885  0.58239642     1.35200
V2198       V  0.66808648  0.09677150  0.58257389     1.35200
C2199       C  0.69054448  0.07200457  0.53697230     0.77600
C2200       C  0.69172215  0.14446727  0.62848810     0.77700
C2201       C  0.69196786  0.07302221  0.62834229     0.77500
C2202       C  0.69044442  0.14393891  0.53679222     0.77500
C2203       C  0.85825439  0.38624867  0.66427063     0.03300
C2204       C  0.88217485  0.38503161  0.65007882    -0.12900
C2205       C  0.88239394  0.35837160  0.64906217     0.00800
C2206       C  0.85850661  0.33282307  0.66460321    -0.11400
C2207       C  0.83463621  0.33431148  0.68025958     0.03300
C2208       C  0.83469318  0.36110578  0.67909902    -0.10800
H2209       H  0.90016176  0.40493670  0.63853185     0.08900
H2210       H  0.85856590  0.31217688  0.66467033     0.06400
H2211       H  0.81674212  0.36291119  0.69079690     0.06200
C2212       C  0.85916033  0.49632391  0.66715734     0.03300
C2213       C  0.88215602  0.02120564  0.65106615    -0.12900
C2214       C  0.88155402  0.04761055  0.64853672     0.00800
C2215       C  0.85754771  0.04901090  0.66377209    -0.11400
C2216       C  0.83426676  0.02381603  0.68053857     0.03300
C2217       C  0.83515148  0.49747982  0.68120622    -0.10800
H2218       H  0.90020654  0.01948365  0.63953317     0.08900
H2219       H  0.85700186  0.06939254  0.66264494     0.06400
H2220       H  0.81757699  0.47784571  0.69374517     0.06200
O2221       O  0.98171475  0.38366088  0.54784607    -0.71600
O2222       O  0.92840317  0.38193610  0.61806780    -0.71900
O2223       O  0.98010534  0.38172816  0.61843856    -0.71700
O2224       O  0.92944201  0.38399386  0.54757815    -0.71700
O2225       O  0.90542608  0.33605652  0.54697681    -0.71700
O2226       O  0.95612546  0.33378776  0.61765106    -0.71700
O2227       O  0.90403976  0.33399801  0.61741226    -0.71600
O2228       O  0.95708330  0.33573219  0.54714867    -0.71800
V2229       V  0.95447429  0.38191325  0.58303194     1.35200
V2230       V  0.93115981  0.33585083  0.58219876     1.35200
C2231       C  0.97931996  0.35967359  0.53700529     0.77600
C2232       C  0.90627018  0.35787867  0.62824873     0.77700
C2233       C  0.97784524  0.35763344  0.62871450     0.77500
C2234       C  0.90746548  0.36011872  0.53698097     0.77500
O2235       O  0.90264688  0.09346692  0.61631661    -0.71600
O2236       O  0.95617830  0.14565188  0.54684784    -0.71900
O2237       O  0.90418860  0.09393121  0.54571010    -0.71700
O2238       O  0.95500033  0.14570757  0.61745184    -0.71700
O2239       O  0.97882400  0.12172936  0.61704245    -0.71700
O2240       O  0.92752993  0.06947293  0.54581196    -0.71700
O2241       O  0.98002595  0.12170075  0.54640083    -0.71600
O2242       O  0.92689405  0.06991411  0.61643295    -0.71800
V2243       V  0.92997359  0.11921900  0.58148683     1.35200
V2244       V  0.95285372  0.09616363  0.58150471     1.35200
C2245       C  0.90493177  0.07182184  0.62698709     0.77600
C2246       C  0.97800060  0.14357431  0.53607740     0.77700
C2247       C  0.90604467  0.07199592  0.53496293     0.77500
C2248       C  0.97666693  0.14344427  0.62808719     0.77500
C2249       C  0.72028935  0.22075626  0.00142253     0.03300
C2250       C  0.69548447  0.21912201  0.98550846    -0.12900
C2251       C  0.66858007  0.19231732  0.98384240     0.00800
C2252       C  0.66656641  0.16688737  0.99991240    -0.11400
C2253       C  0.69141957  0.16855984  0.51616921     0.03300
C2254       C  0.71817932  0.19557393  0.51617692    -0.10800
H2255       H  0.69759730  0.23889306  0.97347450     0.08900
H2256       H  0.64588585  0.14608480  0.99925426     0.06400
H2257       H  0.73767316  0.19742879  0.52876438     0.06200
C2258       C  0.83007675  0.33111243  0.00315692     0.03300
C2259       C  0.85537372  0.33295783  0.51798604    -0.12900
C2260       C  0.88262903  0.35943120  0.51703093     0.00800
C2261       C  0.88432936  0.38432617  0.99960137    -0.11400
C2262       C  0.85869399  0.38242090  0.98407805     0.03300
C2263       C  0.83172055  0.35575681  0.98680185    -0.10800
H2264       H  0.85354926  0.31343206  0.53038537     0.08900
H2265       H  0.90527371  0.40481870  0.99826924     0.06400
H2266       H  0.81180797  0.35363500  0.97513060     0.06200
C2267       C  0.99754413  0.35763246  0.83489580     0.03300
C2268       C  0.52297740  0.38133140  0.84868676    -0.12900
C2269       C  0.55012530  0.38202452  0.84833750     0.00800
C2270       C  0.55174411  0.35858283  0.83156981    -0.11400
C2271       C  0.52604023  0.33460365  0.81623558     0.03300
C2272       C  0.99900261  0.33429258  0.81927083    -0.10800
H2273       H  0.52105336  0.39891606  0.86126921     0.08900
H2274       H  0.57262409  0.35900549  0.83046145     0.06400
H2275       H  0.97906323  0.31640660  0.80760741     0.06200
C2276       C  0.88818744  0.35850351  0.83228563     0.03300
C2277       C  0.86323736  0.33519264  0.81656798    -0.12900
C2278       C  0.83642461  0.33518848  0.81505840     0.00800
C2279       C  0.83460751  0.35862070  0.83128767    -0.11400
C2280       C  0.85972427  0.38196851  0.84806476     0.03300
C2281       C  0.88647194  0.38182686  0.84757202    -0.10800
H2282       H  0.86524721  0.31757182  0.80423923     0.08900
H2283       H  0.81393423  0.35864869  0.83094394     0.06400
H2284       H  0.90598753  0.39934663  0.86041887     0.06200
O2285       O  0.88261574  0.47984421  0.95007498    -0.71600
O2286       O  0.88233156  0.42723820  0.88030307    -0.71900
O2287       O  0.88164227  0.47864174  0.87948435    -0.71700
O2288       O  0.88320474  0.42799406  0.95098622    -0.71700
O2289       O  0.83525584  0.40364094  0.95051525    -0.71700
O2290       O  0.83368932  0.45449172  0.87919736    -0.71700
O2291       O  0.83436991  0.40259399  0.87975047    -0.71600
O2292       O  0.83464987  0.45518741  0.94984715    -0.71800
V2293       V  0.88149510  0.45293716  0.91511417     1.35200
V2294       V  0.83541213  0.42941946  0.91492144     1.35200
C2295       C  0.85851071  0.47737519  0.96040453     0.77600
C2296       C  0.85855133  0.40519498  0.86940686     0.77700
C2297       C  0.85764771  0.47637319  0.86862140     0.77500
C2298       C  0.85928084  0.40617136  0.96172328     0.77500
C2299       C  0.69437375  0.05493980  0.83427013     0.03300
C2300       C  0.71704435  0.05285437  0.81762518    -0.12900
C2301       C  0.71677411  0.02592031  0.81620900     0.00800
C2302       C  0.69334826  0.50075363  0.83286156    -0.11400
C2303       C  0.67032233  0.50276177  0.84998967     0.03300
C2304       C  0.67106867  0.02994223  0.84994846    -0.10800
H2305       H  0.73438824  0.07225329  0.80445898     0.08900
H2306       H  0.69295174  0.47988303  0.83231497     0.06400
H2307       H  0.65389103  0.03211590  0.86324369     0.06200
C2308       C  0.69332058  0.16448989  0.83417091     0.03300
C2309       C  0.66997740  0.16619943  0.84949307    -0.12900
C2310       C  0.66954426  0.19280138  0.84972409     0.00800
C2311       C  0.69307951  0.21806167  0.83333652    -0.11400
C2312       C  0.71675995  0.21637019  0.81749069     0.03300
C2313       C  0.71671048  0.18956855  0.81888534    -0.10800
H2314       H  0.65250609  0.14670683  0.86236043     0.08900
H2315       H  0.69289990  0.23864430  0.83278424     0.01000
H2316       H  0.73431924  0.18758924  0.80647313     0.06200
O2317       O  0.59487395  0.21548972  0.95172550    -0.71600
O2318       O  0.64780773  0.21738697  0.88102794    -0.71900
O2319       O  0.59526985  0.21721423  0.88113869    -0.71700
O2320       O  0.64669778  0.21562744  0.95160719    -0.71700
O2321       O  0.62290035  0.16768970  0.95108645    -0.71700
O2322       O  0.57152199  0.16928283  0.88068805    -0.71700
O2323       O  0.62351567  0.16945170  0.88052043    -0.71600
O2324       O  0.57064936  0.16754915  0.95122712    -0.71800
V2325       V  0.62070308  0.21550192  0.91640968     1.35200
V2326       V  0.59762636  0.16944029  0.91576603     1.35200
C2327       C  0.57290430  0.19143265  0.96213324     0.77600
C2328       C  0.64565304  0.19347864  0.87034783     0.77700
C2329       C  0.57339437  0.19323412  0.87051506     0.77500
C2330       C  0.64454980  0.19162822  0.96210179     0.77500
O2331       O  0.59642439  0.40376092  0.88007570    -0.71600
O2332       O  0.64681409  0.45602777  0.95200443    -0.71900
O2333       O  0.59507186  0.40399660  0.95075816    -0.71700
O2334       O  0.64872830  0.45641302  0.88134070    -0.71700
O2335       O  0.62442844  0.47991235  0.88110353    -0.71700
O2336       O  0.57086016  0.42758403  0.95054486    -0.71700
O2337       O  0.62299546  0.48000651  0.95170851    -0.71600
O2338       O  0.57261046  0.42773995  0.87986650    -0.71800
V2339       V  0.62130580  0.43052508  0.91609254     1.35200
V2340       V  0.59818732  0.45333429  0.91568505     1.35200
C2341       C  0.57468897  0.40586717  0.86926822     0.77600
C2342       C  0.64451280  0.47769465  0.96288568     0.77700
C2343       C  0.57311399  0.40593960  0.96130661     0.77500
C2344       C  0.64656312  0.47818251  0.87084073     0.77500
O2345       O  0.81373175  0.28973995  0.78313230    -0.71600
O2346       O  0.76093582  0.23630032  0.71395136    -0.71900
O2347       O  0.81347044  0.28848619  0.71254584    -0.71700
O2348       O  0.76166891  0.23811715  0.78451376    -0.71700
O2349       O  0.73787218  0.26211794  0.78500266    -0.71700
O2350       O  0.78931767  0.31213239  0.71250809    -0.71700
O2351       O  0.73719385  0.26036457  0.71447073    -0.71600
O2352       O  0.79039677  0.31420827  0.78314725    -0.71800
V2353       V  0.78697865  0.26362954  0.74860652     1.35200
V2354       V  0.76417300  0.28676032  0.74867082     1.35200
C2355       C  0.81204092  0.31181456  0.79366495     0.77600
C2356       C  0.73897755  0.23832403  0.70393924     0.77700
C2357       C  0.81112851  0.31004677  0.70168567     0.77500
C2358       C  0.74008110  0.24043427  0.79567558     0.77500
C2359       C  0.66991515  0.08389825  0.82094539    -0.26200
C2360       C  0.69452189  0.08320733  0.83448751    -0.14300
C2361       C  0.71886784  0.10931541  0.84779771     0.36400
C2362       C  0.71804229  0.13566567  0.84729429    -0.25600
C2363       C  0.69334993  0.13630977  0.83392773    -0.14900
C2364       C  0.66920181  0.11028967  0.82014392     0.37500
N2365       N  0.64437136  0.11093332  0.80479207    -0.89100
H2366       H  0.65145062  0.06384462  0.81032567     0.18600
H2367       H  0.73653685  0.15573249  0.85784250     0.18600
N2368       N  0.74407476  0.10884127  0.86219014    -0.88100
H2369       H  0.62848260  0.08991353  0.79591714     0.35900
H2370       H  0.65194240  0.12448206  0.78233088     0.41000
H2371       H  0.73705447  0.09541394  0.88477256     0.40700
H2372       H  0.76012141  0.12993502  0.87066320     0.35500
C2373       C  0.91785044  0.33606958  0.85138761    -0.26200
C2374       C  0.91628313  0.35846521  0.83286440    -0.14300
C2375       C  0.94145431  0.38071056  0.81535475     0.36400
C2376       C  0.96795273  0.38024182  0.81692702    -0.25600
C2377       C  0.96949900  0.35776414  0.83522087    -0.14900
C2378       C  0.94439994  0.33561623  0.85297229     0.37500
N2379       N  0.94614007  0.31305916  0.87274988    -0.89100
H2380       H  0.89840977  0.31919404  0.86499198     0.18600
H2381       H  0.98736493  0.39711086  0.80326616     0.18600
N2382       N  0.93980461  0.40335186  0.79565769    -0.88100
H2383       H  0.92569612  0.29845202  0.88420858     0.35900
H2384       H  0.96092644  0.32339242  0.89373603     0.41000
H2385       H  0.92516672  0.39311410  0.77451898     0.40700
H2386       H  0.96031196  0.41806162  0.78441807     0.35500
C2387       C  0.76252998  0.26044199  0.53400024    -0.26200
C2388       C  0.74861572  0.24880754  0.00166321    -0.14300
C2389       C  0.76169413  0.26357722  0.96967286     0.36400
C2390       C  0.78814776  0.29067890  0.97097513    -0.25600
C2391       C  0.80198558  0.30283892  0.00349973    -0.14900
C2392       C  0.78919397  0.28746312  0.53557200     0.37500
N2393       N  0.80317715  0.29946491  0.56921202    -0.89100
H2394       H  0.75232752  0.24861920  0.55832319     0.18600
H2395       H  0.79836895  0.30216858  0.94648598     0.18600
N2396       N  0.74827540  0.25073874  0.93606002    -0.88100
H2397       H  0.79096249  0.28529084  0.58996713     0.35900
H2398       H  0.80305176  0.31915394  0.57326163     0.41000
H2399       H  0.74867359  0.23107883  0.93321139     0.40700
H2400       H  0.76073657  0.26446566  0.91510827     0.35500
C2401       C  0.85857617  0.42701915  0.69727470    -0.26200
C2402       C  0.85813008  0.41422518  0.66436091    -0.14300
C2403       C  0.85835863  0.42868463  0.63253483     0.36400
C2404       C  0.85921422  0.45569575  0.63457654    -0.25600
C2405       C  0.85957616  0.46847725  0.66744297    -0.14900
C2406       C  0.85956505  0.45413794  0.69930726     0.37500
N2407       N  0.86178135  0.46680111  0.73390646    -0.89100
H2408       H  0.85884296  0.41611358  0.72163971     0.18600
H2409       H  0.85893694  0.46656026  0.61017958     0.18600
N2410       N  0.85660077  0.41629369  0.59786972    -0.88100
H2411       H  0.84179993  0.45361419  0.74713964     0.35900
H2412       H  0.86478031  0.98799962  0.73257301     0.41000
H2413       H  0.85318356  0.39490375  0.59904535     0.40700
H2414       H  0.87682046  0.42950456  0.58512079     0.35500
C2415       C  0.59340306  0.18947677  0.63534371    -0.26200
C2416       C  0.58018440  0.18956090  0.66766649    -0.14300
C2417       C  0.59388225  0.18991919  0.69997255     0.36400
C2418       C  0.62093210  0.19059063  0.69950617    -0.25600
C2419       C  0.63417653  0.19054022  0.66716454    -0.14900
C2420       C  0.62040538  0.19009858  0.63485916     0.37500
N2421       N  0.63416308  0.19095612  0.60162195    -0.89100
H2422       H  0.58293486  0.18938805  0.61044871     0.18600
H2423       H  0.63140363  0.19068649  0.72439790     0.18600
N2424       N  0.57998989  0.18891135  0.73315402    -0.88100
H2425       H  0.63740323  0.20960124  0.58764236     0.35900
H2426       H  0.61957293  0.17225054  0.58697285     0.41000
H2427       H  0.59451336  0.20754872  0.74794601     0.40700
H2428       H  0.57669789  0.17020176  0.74702664     0.35500
C2429       C  0.54710907  0.27200313  0.01749349    -0.26200
C2430       C  0.52526201  0.24803692  0.49876531    -0.14300
C2431       C  0.00261773  0.25051640  0.48086592     0.36400
C2432       C  0.00316633  0.27753933  0.48220269    -0.25600
C2433       C  0.52560498  0.30172447  0.00020047    -0.14900
C2434       C  0.54755715  0.29897818  0.01856590     0.37500
N2435       N  0.56994355  0.32349873  0.03846517    -0.89100
H2436       H  0.56384786  0.26962761  0.03160627     0.18600
H2437       H  0.98621235  0.27992142  0.46864336     0.18600
N2438       N  0.97983421  0.22593525  0.46143204    -0.88100
H2439       H  0.58582560  0.31814433  0.54911946     0.35900
H2440       H  0.56105388  0.32847891  0.55872394     0.41000
H2441       H  0.99011636  0.22111065  0.94037186     0.40700
H2442       H  0.96520858  0.23134309  0.94960719     0.35500
C2443       C  0.77018878  0.04456533  0.98072087    -0.26200
C2444       C  0.74793660  0.02435519  0.00333624    -0.14300
C2445       C  0.75252797  0.00420396  0.52358922     0.36400
C2446       C  0.77939642  0.00477361  0.52017005    -0.25600
C2447       C  0.80166400  0.02497278  0.99738682    -0.14900
C2448       C  0.79700732  0.04508042  0.97725825     0.37500
N2449       N  0.81860323  0.06595443  0.95289283    -0.89100
H2450       H  0.76641665  0.05972555  0.96503848     0.18600
H2451       H  0.78312869  0.48952296  0.53572217     0.18600
N2452       N  0.73092342  0.48337739  0.54799115    -0.88100
H2453       H  0.80919367  0.06098817  0.92751015     0.35900
H2454       H  0.83735222  0.06384988  0.95141251     0.41000
H2455       H  0.71217599  0.48549917  0.54935634     0.40700
H2456       H  0.74031012  0.48844290  0.57338402     0.35500
C2457       C  0.94362417  0.13277277  0.85230436    -0.26200
C2458       C  0.96824987  0.13531583  0.83431593    -0.14300
C2459       C  0.96600170  0.11091412  0.81569241     0.36400
C2460       C  0.93913710  0.08407329  0.81599513    -0.25600
C2461       C  0.91451288  0.08150780  0.83395432    -0.14900
C2462       C  0.91668613  0.10593541  0.85246022     0.37500
N2463       N  0.89163428  0.10322438  0.87152098    -0.89100
H2464       H  0.94559673  0.15167695  0.86655220     0.18600
H2465       H  0.93716085  0.06520429  0.80165585     0.18600
N2466       N  0.99088340  0.11371383  0.79614490    -0.88100
H2467       H  0.89692422  0.12325575  0.88366882     0.35900
H2468       H  0.88674129  0.08793744  0.89196863     0.41000
H2469       H  0.49518104  0.12897970  0.77572775     0.40700
H2470       H  0.98555472  0.09369329  0.78393933     0.35500
C2471       C  0.61086520  0.46673116  0.68142124    -0.26200
C2472       C  0.63530615  0.46826546  0.66415966    -0.14300
C2473       C  0.63300447  0.44292790  0.64795289     0.36400
C2474       C  0.60616829  0.41619865  0.64985878    -0.25600
C2475       C  0.58171035  0.41467734  0.66706734    -0.14900
C2476       C  0.58400200  0.44003284  0.68321622     0.37500
N2477       N  0.55915142  0.43840816  0.70161147    -0.89100
H2478       H  0.61297048  0.48632366  0.69400954     0.18600
H2479       H  0.60405411  0.39661090  0.63724656     0.18600
N2480       N  0.65777110  0.44463311  0.62925386    -0.88100
H2481       H  0.56453612  0.45907959  0.71188652     0.35900
H2482       H  0.55449176  0.42433501  0.72336608     0.41000
H2483       H  0.66225828  0.45870747  0.60753456     0.40700
H2484       H  0.65236760  0.42398186  0.61889286     0.35500
C2485       C  0.55346477  0.88674156  0.16739595     0.03300
C2486       C  0.55194997  0.86141870  0.18134156    -0.12900
C2487       C  0.52531804  0.83430128  0.18116116     0.00800
C2488       C  0.00015084  0.83265814  0.16524134    -0.11400
C2489       C  0.00193536  0.85824342  0.14995722     0.03300
C2490       C  0.52853062  0.88521030  0.15208365    -0.10800
H2491       H  0.57156099  0.86334751  0.19369053     0.08900
H2492       H  0.97945979  0.81186502  0.16463795     0.06400
H2493       H  0.53057896  0.90506288  0.14036967     0.06200
C2494       C  0.66339313  0.99655936  0.16496379     0.03300
C2495       C  0.68846334  0.49824371  0.18002143    -0.12900
C2496       C  0.71533544  0.52506226  0.18126860     0.00800
C2497       C  0.71698030  0.55047860  0.16562975    -0.11400
C2498       C  0.69155434  0.54867753  0.14970152     0.03300
C2499       C  0.66484573  0.52163500  0.15035195    -0.10800
H2500       H  0.68643460  0.97854098  0.19214186     0.08900
H2501       H  0.73766891  0.57128168  0.16584664     0.06400
H2502       H  0.64511287  0.51954654  0.13816200     0.06200
C2503       C  0.99608344  0.66370629  0.33488780     0.03300
C2504       C  0.52124220  0.66568000  0.34998774    -0.12900
C2505       C  0.54843161  0.69228150  0.34974779     0.00800
C2506       C  0.55019904  0.71728082  0.33274285    -0.11400
C2507       C  0.52470503  0.71534871  0.31679919     0.03300
C2508       C  0.49769314  0.68864509  0.31910451    -0.10800
H2509       H  0.51921706  0.64621777  0.36281588     0.08900
H2510       H  0.57111110  0.73782856  0.33170472     0.06400
H2511       H  0.97793705  0.68637863  0.30700578     0.06200
C2512       C  0.88640304  0.55310159  0.33340470     0.03300
C2513       C  0.88497457  0.52798123  0.34791721    -0.12900
C2514       C  0.85844278  0.00073214  0.34786382     0.00800
C2515       C  0.83321846  0.99872804  0.33099725    -0.11400
C2516       C  0.83486911  0.52413786  0.31521717     0.03300
C2517       C  0.86152477  0.55118929  0.31741669    -0.10800
H2518       H  0.90454459  0.53022517  0.36075519     0.08900
H2519       H  0.81268437  0.97779023  0.33022076     0.06400
H2520       H  0.86351603  0.57093413  0.30545530     0.06200
O2521       O  0.78875944  0.99955925  0.28287387    -0.71600
O2522       O  0.73732051  0.50160348  0.21287131    -0.71900
O2523       O  0.78869569  0.50082501  0.21220857    -0.71700
O2524       O  0.73689678  0.00041170  0.28350504    -0.71700
O2525       O  0.76171024  0.54834951  0.28339256    -0.71700
O2526       O  0.81346636  0.54876853  0.21226251    -0.71700
O2527       O  0.76167234  0.54953980  0.21280180    -0.71600
O2528       O  0.81303416  0.54748814  0.28289461    -0.71800
V2529       V  0.76337004  0.00152356  0.24776385     1.35200
V2530       V  0.78699937  0.54758718  0.24791442     1.35200
C2531       C  0.81071454  0.52344596  0.29355429     0.77600
C2532       C  0.73965131  0.52566401  0.20230446     0.77700
C2533       C  0.81081422  0.52467455  0.20157204     0.77500
C2534       C  0.73967198  0.52457078  0.29426278     0.77500
O2535       O  0.54784124  0.75950077  0.21244085    -0.71600
O2536       O  0.55021932  0.81303942  0.28259578    -0.71900
O2537       O  0.54960576  0.76054418  0.28311835    -0.71700
O2538       O  0.54839179  0.81153774  0.21197198    -0.71700
O2539       O  0.00045610  0.78805366  0.21279738    -0.71700
O2540       O  0.50165457  0.73703483  0.28354860    -0.71700
O2541       O  0.50226854  0.78909206  0.28297524    -0.71600
O2542       O  0.99988034  0.73551640  0.21333308    -0.71800
V2543       V  0.54807502  0.78567506  0.24741233     1.35200
V2544       V  0.00197543  0.76291450  0.24845086     1.35200
C2545       C  0.52373252  0.73746311  0.20221316     0.77600
C2546       C  0.52640547  0.81095489  0.29352661     0.77700
C2547       C  0.52558165  0.73914063  0.29434423     0.77500
C2548       C  0.52445497  0.80966490  0.20166131     0.77500
C2549       C  0.82985181  0.52531424  0.49686987     0.03300
C2550       C  0.83115323  0.50159752  0.48216210    -0.12900
C2551       C  0.85780308  0.50128459  0.48155657     0.00800
C2552       C  0.88309304  0.52463318  0.99730821    -0.11400
C2553       C  0.88159811  0.54837504  0.01318843     0.03300
C2554       C  0.85486432  0.54846998  0.01183506    -0.10800
H2555       H  0.81137239  0.98382518  0.47006930     0.08900
H2556       H  0.90368322  0.52444330  0.99764138     0.06400
H2557       H  0.85297071  0.56619691  0.02405799     0.06200
C2558       C  0.71954422  0.52376242  0.50359047     0.03300
C2559       C  0.69484111  0.50047643  0.48755069    -0.12900
C2560       C  0.66822172  0.50070207  0.48475414     0.00800
C2561       C  0.66638231  0.52449815  0.50004575    -0.11400
C2562       C  0.69170198  0.54830017  0.01712089     0.03300
C2563       C  0.71823112  0.54775352  0.01772158    -0.10800
H2564       H  0.69702940  0.98277896  0.47575667     0.08900
H2565       H  0.64588697  0.52482446  0.49862760     0.06400
H2566       H  0.73784024  0.56547837  0.03017503     0.06200
C2567       C  0.52508140  0.71982750  0.99880225     0.03300
C2568       C  0.54899369  0.71865789  0.48413157    -0.12900
C2569       C  0.54924729  0.69200449  0.48319945     0.00800
C2570       C  0.52550086  0.66642545  0.99898015    -0.11400
C2571       C  0.50159079  0.66780808  0.01462704     0.03300
C2572       C  0.50154015  0.69457205  0.01352910    -0.10800
H2573       H  0.56674709  0.73844929  0.47208173     0.08900
H2574       H  0.52563120  0.64581267  0.99897789     0.06400
H2575       H  0.98344960  0.69625173  0.02533984     0.06200
C2576       C  0.52636884  0.83015333  0.50048223     0.03300
C2577       C  0.50247476  0.83175637  0.01475544    -0.12900
C2578       C  0.50255522  0.85861890  0.01551118     0.00800
C2579       C  0.52657378  0.88385320  0.49938995    -0.11400
C2580       C  0.54990625  0.88180165  0.48304448     0.03300
C2581       C  0.54967905  0.85492209  0.48460353    -0.10800
H2582       H  0.98471493  0.81217669  0.02706499     0.08900
H2583       H  0.52666379  0.90457208  0.49896997     0.06400
H2584       H  0.56710804  0.85267928  0.47210705     0.06200
C2585       C  0.55231061  0.68939767  0.16704796     0.03300
C2586       C  0.52750932  0.66627431  0.15097031    -0.12900
C2587       C  0.00092407  0.66660743  0.14937758     0.00800
C2588       C  0.99912035  0.69019526  0.16538332    -0.11400
C2589       C  0.52428727  0.71351437  0.18164944     0.03300
C2590       C  0.55078255  0.71294178  0.18181904    -0.10800
H2591       H  0.52948790  0.64851795  0.13898366     0.08900
H2592       H  0.97849773  0.69031261  0.16482614     0.06400
H2593       H  0.57043655  0.73061317  0.19426120     0.06200
C2594       C  0.66260671  0.69086674  0.16754510     0.03300
C2595       C  0.66439594  0.66783077  0.15162198    -0.12900
C2596       C  0.69115997  0.66781177  0.15062948     0.00800
C2597       C  0.71641116  0.69127848  0.16712453    -0.11400
C2598       C  0.71449265  0.71446144  0.18398440     0.03300
C2599       C  0.68742998  0.71393818  0.18367349    -0.10800
H2600       H  0.64476643  0.65020021  0.13909009     0.08900
H2601       H  0.73722249  0.69153107  0.16678230     0.06400
H2602       H  0.68534468  0.73136292  0.19644374     0.06200
O2603       O  0.71481176  0.59436727  0.04777706    -0.71600
O2604       O  0.71604542  0.64698337  0.11837393    -0.71900
O2605       O  0.71619158  0.59488884  0.11827036    -0.71700
O2606       O  0.71469464  0.64607989  0.04783957    -0.71700
O2607       O  0.66672927  0.62220066  0.04783586    -0.71700
O2608       O  0.66822427  0.57089408  0.11826743    -0.71700
O2609       O  0.66807957  0.62253829  0.11837281    -0.71600
O2610       O  0.66684552  0.56995836  0.04774437    -0.71800
V2611       V  0.71449443  0.62011813  0.08295402     1.35200
V2612       V  0.66840032  0.59687260  0.08311636     1.35200
C2613       C  0.69086446  0.57221680  0.03737882     0.77600
C2614       C  0.69202329  0.64451727  0.12907847     0.77700
C2615       C  0.69223091  0.57304541  0.12881306     0.77500
C2616       C  0.69073428  0.64406508  0.03739873     0.77500
C2617       C  0.85776244  0.88576671  0.16401199     0.03300
C2618       C  0.88185163  0.88465057  0.15015803    -0.12900
C2619       C  0.88210951  0.85801635  0.14904650     0.00800
C2620       C  0.85822689  0.83243236  0.16455909    -0.11400
C2621       C  0.83430591  0.83387459  0.18016262     0.03300
C2622       C  0.83417945  0.86055817  0.17869583    -0.10800
H2623       H  0.89994713  0.90462110  0.13888633     0.08900
H2624       H  0.85835907  0.81182352  0.16471436     0.06400
H2625       H  0.81610378  0.86226168  0.19018412     0.06200
C2626       C  0.85926678  0.99622389  0.16748678     0.03300
C2627       C  0.88240917  0.52116448  0.15161004    -0.12900
C2628       C  0.88178345  0.54754443  0.14885719     0.00800
C2629       C  0.85777472  0.54898705  0.16405129    -0.11400
C2630       C  0.83440137  0.52377940  0.18070398     0.03300
C2631       C  0.83512267  0.99737139  0.18111481    -0.10800
H2632       H  0.90055800  0.51949076  0.14030800     0.08900
H2633       H  0.85727352  0.56939165  0.16292935     0.06400
H2634       H  0.81733214  0.97766810  0.19326967     0.06200
O2635       O  0.98151232  0.88359486  0.04770052    -0.71600
O2636       O  0.92812418  0.88172598  0.11797223    -0.71900
O2637       O  0.97996973  0.88172497  0.11833362    -0.71700
O2638       O  0.92926473  0.88386586  0.04743398    -0.71700
O2639       O  0.90526849  0.83592846  0.04686750    -0.71700
O2640       O  0.95611941  0.83378900  0.11749083    -0.71700
O2641       O  0.90390333  0.83379007  0.11735200    -0.71600
O2642       O  0.95690066  0.83566683  0.04695877    -0.71800
V2643       V  0.95427312  0.88181008  0.08292253     1.35200
V2644       V  0.93103700  0.83574989  0.08208124     1.35200
C2645       C  0.97908305  0.85961382  0.03675806     0.77600
C2646       C  0.90604454  0.85762766  0.12819500     0.77700
C2647       C  0.97779934  0.85766854  0.12859234     0.77500
C2648       C  0.90735341  0.85999141  0.03675254     0.77500
O2649       O  0.90274965  0.59324457  0.11632058    -0.71600
O2650       O  0.95598623  0.64528650  0.04654183    -0.71900
O2651       O  0.90402206  0.59353830  0.04566596    -0.71700
O2652       O  0.95509301  0.64546369  0.11712234    -0.71700
O2653       O  0.97892019  0.62148876  0.11663582    -0.71700
O2654       O  0.92740290  0.56912009  0.04561832    -0.71700
O2655       O  0.97989375  0.62139652  0.04601173    -0.71600
O2656       O  0.92696039  0.56965694  0.11630581    -0.71800
V2657       V  0.92992753  0.61890280  0.08131187     1.35200
V2658       V  0.95282274  0.59586363  0.08122195     1.35200
C2659       C  0.90507576  0.57163846  0.12704546     0.77600
C2660       C  0.97783945  0.64327700  0.03576088     0.77700
C2661       C  0.90589387  0.57163099  0.03483588     0.77500
C2662       C  0.97679384  0.64322144  0.12767211     0.77500
C2663       C  0.72020319  0.72070821  0.50086869     0.03300
C2664       C  0.69539140  0.71914886  0.48506372    -0.12900
C2665       C  0.66844819  0.69237148  0.48344439     0.00800
C2666       C  0.66636378  0.66691371  0.49948617    -0.11400
C2667       C  0.69163059  0.66863571  0.01674559     0.03300
C2668       C  0.71832298  0.69569645  0.01684113    -0.10800
H2669       H  0.69750897  0.73894933  0.47311351     0.08900
H2670       H  0.64563552  0.64615474  0.49889156     0.06400
H2671       H  0.73782279  0.69763165  0.02951321     0.06200
C2672       C  0.83001969  0.83120736  0.50369916     0.03300
C2673       C  0.85540888  0.83284895  0.01743203    -0.12900
C2674       C  0.88263564  0.85931611  0.01654602     0.00800
C2675       C  0.88430077  0.88444922  0.50016995    -0.11400
C2676       C  0.85866337  0.88256126  0.48471927     0.03300
C2677       C  0.83168048  0.85589542  0.48742344    -0.10800
H2678       H  0.85355528  0.81332835  0.02988628     0.08900
H2679       H  0.90525174  0.90493245  0.49879545     0.06400
H2680       H  0.81178198  0.85379635  0.47573862     0.06200
C2681       C  0.99754982  0.85750914  0.33410110     0.03300
C2682       C  0.52289630  0.88107471  0.34808890    -0.12900
C2683       C  0.55000782  0.88170172  0.34785975     0.00800
C2684       C  0.55163769  0.85830161  0.33098999    -0.11400
C2685       C  0.52597754  0.83444822  0.31539825     0.03300
C2686       C  0.99902836  0.83425055  0.31826134    -0.10800
H2687       H  0.52095265  0.89859475  0.36082199     0.08900
H2688       H  0.57248592  0.85865287  0.33001255     0.06400
H2689       H  0.97913532  0.81647954  0.30636650     0.06200
C2690       C  0.88837212  0.85877619  0.33255116     0.03300
C2691       C  0.86344532  0.83551667  0.31675166    -0.12900
C2692       C  0.83659979  0.83543020  0.31540333     0.00800
C2693       C  0.83473545  0.85878835  0.33177101    -0.11400
C2694       C  0.85983922  0.88210839  0.34861008     0.03300
C2695       C  0.88660310  0.88199698  0.34806634    -0.10800
H2696       H  0.86549289  0.81797510  0.30425512     0.08900
H2697       H  0.81403885  0.85877110  0.33150441     0.06400
H2698       H  0.90609051  0.89946651  0.36101524     0.06200
O2699       O  0.88272256  0.97998695  0.45061563    -0.71600
O2700       O  0.88242925  0.92734946  0.38089486    -0.71900
O2701       O  0.88175286  0.97874780  0.38003475    -0.71700
O2702       O  0.88324650  0.92810071  0.45158327    -0.71700
O2703       O  0.83529569  0.90382422  0.45114776    -0.71700
O2704       O  0.83379710  0.95453900  0.37966958    -0.71700
O2705       O  0.83446704  0.90267171  0.38038318    -0.71600
O2706       O  0.83475618  0.95539439  0.45029789    -0.71800
V2707       V  0.88158813  0.95305313  0.41568742     1.35200
V2708       V  0.83550338  0.92954960  0.41547238     1.35200
C2709       C  0.85862308  0.97757251  0.46086419     0.77600
C2710       C  0.85865211  0.90529648  0.37001259     0.77700
C2711       C  0.85774740  0.97642408  0.36911469     0.77500
C2712       C  0.85930026  0.90631912  0.46235216     0.77500
C2713       C  0.69403078  0.55464078  0.33389269     0.03300
C2714       C  0.71691880  0.55268387  0.31762379    -0.12900
C2715       C  0.71666173  0.52574583  0.31615306     0.00800
C2716       C  0.69312750  0.00050907  0.33253003    -0.11400
C2717       C  0.66996281  0.00242002  0.34939141     0.03300
C2718       C  0.67059574  0.52955198  0.34923416    -0.10800
H2719       H  0.73441698  0.57217918  0.30478512     0.08900
H2720       H  0.69277924  0.97966099  0.33201971     0.06400
H2721       H  0.65326918  0.53163619  0.36227067     0.06200
C2722       C  0.69311366  0.66428769  0.33403741     0.03300
C2723       C  0.66959205  0.66592916  0.34894687    -0.12900
C2724       C  0.66934749  0.69263396  0.34951484     0.00800
C2725       C  0.69314318  0.71800159  0.33366777    -0.11400
C2726       C  0.71692658  0.71635613  0.31808962     0.03300
C2727       C  0.71678632  0.68949881  0.31934494    -0.10800
H2728       H  0.65186951  0.64631786  0.36132013     0.08900
H2729       H  0.69307761  0.73864486  0.33330187     0.01000
H2730       H  0.73452909  0.68758289  0.30721789     0.06200
O2731       O  0.59477467  0.71547167  0.45142346    -0.71600
O2732       O  0.64759071  0.71727360  0.38064844    -0.71900
O2733       O  0.59507262  0.71714096  0.38082527    -0.71700
O2734       O  0.64657884  0.71565858  0.45120379    -0.71700
O2735       O  0.62277122  0.66771649  0.45077892    -0.71700
O2736       O  0.57129617  0.66920745  0.38047214    -0.71700
O2737       O  0.62328047  0.66933807  0.38022662    -0.71600
O2738       O  0.57054132  0.66752975  0.45102767    -0.71800
V2739       V  0.62053930  0.71545885  0.41605393     1.35200
V2740       V  0.59745054  0.66939449  0.41550193     1.35200
C2741       C  0.57284525  0.69142550  0.46194208     0.77600
C2742       C  0.64542931  0.69334251  0.37003771     0.77700
C2743       C  0.57317404  0.69315758  0.37027107     0.77500
C2744       C  0.64442485  0.69167438  0.46174009     0.77500
O2745       O  0.59625289  0.90337652  0.37975430    -0.71600
O2746       O  0.64686622  0.95589885  0.45139109    -0.71900
O2747       O  0.59515687  0.90384380  0.45049240    -0.71700
O2748       O  0.64848849  0.95608023  0.38070973    -0.71700
O2749       O  0.62415062  0.97954262  0.38059978    -0.71700
O2750       O  0.57086184  0.92734823  0.45026104    -0.71700
O2751       O  0.62292522  0.97975528  0.45121784    -0.71600
O2752       O  0.57242469  0.92734015  0.37955113    -0.71800
V2753       V  0.62123416  0.93026633  0.41563277     1.35200
V2754       V  0.59805438  0.95301462  0.41528088     1.35200
C2755       C  0.57451904  0.90547961  0.36893203     0.77600
C2756       C  0.64449920  0.97751370  0.46233721     0.77700
C2757       C  0.57323524  0.90581399  0.46115036     0.77500
C2758       C  0.64626064  0.97782294  0.37024100     0.77500
O2759       O  0.81394582  0.78992094  0.28362038    -0.71600
O2760       O  0.76101606  0.73618450  0.21477909    -0.71900
O2761       O  0.81345725  0.78833779  0.21300166    -0.71700
O2762       O  0.76195260  0.73822653  0.28534278    -0.71700
O2763       O  0.73808659  0.76216020  0.28575748    -0.71700
O2764       O  0.78925690  0.81193535  0.21293724    -0.71700
O2765       O  0.73724846  0.76022532  0.21524289    -0.71600
O2766       O  0.79052802  0.81430848  0.28360110    -0.71800
V2767       V  0.78712541  0.76364007  0.24927208     1.35200
V2768       V  0.76426272  0.78671537  0.24928887     1.35200
C2769       C  0.81221892  0.81199407  0.29408901     0.77600
C2770       C  0.73907413  0.73821454  0.20471484     0.77700
C2771       C  0.81099134  0.80977730  0.20196233     0.77500
C2772       C  0.74033322  0.74050268  0.29645965     0.77500
C2773       C  0.66994723  0.58383350  0.31973711    -0.26200
C2774       C  0.69415955  0.58290198  0.33420076    -0.14300
C2775       C  0.71809861  0.60876298  0.34859720     0.36400
C2776       C  0.71736042  0.63516478  0.34805680    -0.25600
C2777       C  0.69308510  0.63606928  0.33371764    -0.14900
C2778       C  0.66928104  0.61026314  0.31901012     0.37500
N2779       N  0.64485159  0.61116523  0.30284765    -0.89100
H2780       H  0.65176541  0.56394584  0.30838898     0.18600
H2781       H  0.73556719  0.65505550  0.35936453     0.18600
N2782       N  0.74277775  0.60796367  0.36415370    -0.88100
H2783       H  0.62917851  0.59028342  0.29335364     0.35900
H2784       H  0.65297851  0.62504116  0.28070996     0.41000
H2785       H  0.73499394  0.59417402  0.38639206     0.40700
H2786       H  0.75856805  0.62889603  0.37338731     0.35500
C2787       C  0.91776913  0.83573435  0.35035568    -0.26200
C2788       C  0.91646364  0.85872397  0.33296397    -0.14300
C2789       C  0.94182582  0.88140336  0.31622990     0.36400
C2790       C  0.96822795  0.88073382  0.31740438    -0.25600
C2791       C  0.96951522  0.85767167  0.33457772    -0.14900
C2792       C  0.94422901  0.83510465  0.35159232     0.37500
N2793       N  0.94569407  0.81195853  0.37033357    -0.89100
H2794       H  0.89818439  0.81851591  0.36337212     0.18600
H2795       H  0.98778232  0.89794145  0.30432288     0.18600
N2796       N  0.94047203  0.90469076  0.29769068    -0.88100
H2797       H  0.92513805  0.79710608  0.38135352     0.35900
H2798       H  0.96032055  0.82167138  0.39160954     0.41000
H2799       H  0.92599657  0.89514559  0.27625020     0.40700
H2800       H  0.96109711  0.91966138  0.28692921     0.35500
C2801       C  0.76265435  0.76072608  0.03421767    -0.26200
C2802       C  0.74854032  0.74879125  0.50134139    -0.14300
C2803       C  0.76164714  0.76389768  0.46952543     0.36400
C2804       C  0.78812230  0.79098537  0.47112061    -0.25600
C2805       C  0.80192695  0.80286991  0.50375879    -0.14900
C2806       C  0.78934582  0.78772226  0.03549015     0.37500
N2807       N  0.80348191  0.79997152  0.06899138    -0.89100
H2808       H  0.75249441  0.74911832  0.05866788     0.18600
H2809       H  0.79837014  0.80270022  0.44675678     0.18600
N2810       N  0.74822937  0.75143657  0.43578397    -0.88100
H2811       H  0.79133405  0.78597849  0.08991105     0.35900
H2812       H  0.80343786  0.81972452  0.07281540     0.41000
H2813       H  0.74861229  0.73180314  0.43250855     0.40700
H2814       H  0.76069480  0.76539364  0.41499572     0.35500
C2815       C  0.85585371  0.92539095  0.19710315    -0.26200
C2816       C  0.85759052  0.91374739  0.16420107    -0.14300
C2817       C  0.86008854  0.92943621  0.13259417     0.36400
C2818       C  0.86131129  0.95660208  0.13487526    -0.25600
C2819       C  0.85956676  0.96828112  0.16772620    -0.14900
C2820       C  0.85703334  0.95258100  0.19938452     0.37500
N2821       N  0.85693734  0.96392355  0.23418024    -0.89100
H2822       H  0.85434505  0.91356125  0.22137410     0.18600
H2823       H  0.86277527  0.96836579  0.11056247     0.18600
N2824       N  0.86008907  0.91807794  0.09777874    -0.88100
H2825       H  0.83586396  0.95079598  0.24501094     0.35900
H2826       H  0.86119795  0.48562996  0.23341194     0.41000
H2827       H  0.85539777  0.89623117  0.09841662     0.40700
H2828       H  0.88124732  0.93095948  0.08706809     0.35500
C2829       C  0.59365763  0.68946346  0.13530288    -0.26200
C2830       C  0.58034033  0.68940740  0.16760311    -0.14300
C2831       C  0.59412162  0.68998779  0.19993598     0.36400
C2832       C  0.62123906  0.69080387  0.19950630    -0.25600
C2833       C  0.63453125  0.69080159  0.16718471    -0.14900
C2834       C  0.62078774  0.69035127  0.13486133     0.37500
N2835       N  0.63471407  0.69149839  0.10165572    -0.89100
H2836       H  0.58318804  0.68932849  0.11039095     0.18600
H2837       H  0.63173276  0.69098417  0.22441478     0.18600
N2838       N  0.58027893  0.68910999  0.23311144    -0.88100
H2839       H  0.63782918  0.71014965  0.08779671     0.35900
H2840       H  0.62028719  0.67281495  0.08686590     0.41000
H2841       H  0.59477944  0.70786911  0.24773881     0.40700
H2842       H  0.57712063  0.67052489  0.24716320     0.35500
C2843       C  0.54775268  0.77220119  0.51707128    -0.26200
C2844       C  0.52492449  0.74783734  0.99884404    -0.14300
C2845       C  0.00252499  0.75038341  0.98070310     0.36400
C2846       C  0.00303233  0.77740716  0.98174764    -0.25600
C2847       C  0.52608914  0.80194022  0.50066939    -0.14900
C2848       C  0.54832351  0.79921621  0.51835144     0.37500
N2849       N  0.57113994  0.82380340  0.53773113    -0.89100
H2850       H  0.56464567  0.76979627  0.53075513     0.18600
H2851       H  0.98616071  0.77973543  0.96789651     0.18600
N2852       N  0.97987884  0.72574399  0.96120524    -0.88100
H2853       H  0.58446273  0.81784430  0.05033906     0.35900
H2854       H  0.55944174  0.82802784  0.05905790     0.41000
H2855       H  0.98994935  0.72134317  0.44039393     0.40700
H2856       H  0.96512363  0.73158636  0.45007883     0.35500
C2857       C  0.77019373  0.54467031  0.48105882    -0.26200
C2858       C  0.74782555  0.52423557  0.50338389    -0.14300
C2859       C  0.75268985  0.50445186  0.02375692     0.36400
C2860       C  0.77946023  0.50485051  0.02015751    -0.25600
C2861       C  0.80171361  0.52512381  0.49771154    -0.14900
C2862       C  0.79707382  0.54529435  0.47769505     0.37500
N2863       N  0.81872838  0.56630936  0.45349234    -0.89100
H2864       H  0.76645316  0.55990136  0.46548202     0.18600
H2865       H  0.78323361  0.98968837  0.03582056     0.18600
N2866       N  0.73125512  0.98396014  0.04854416    -0.88100
H2867       H  0.80940235  0.56144389  0.42806402     0.35900
H2868       H  0.83750533  0.56425350  0.45202108     0.41000
H2869       H  0.71258557  0.98621004  0.05000792     0.40700
H2870       H  0.74087550  0.98927480  0.07380738     0.35500
C2871       C  0.94334061  0.63298723  0.35197743    -0.26200
C2872       C  0.96806151  0.63531735  0.33445937    -0.14300
C2873       C  0.96592155  0.61068943  0.31650437     0.36400
C2874       C  0.93906000  0.58387600  0.31694448    -0.25600
C2875       C  0.91434558  0.58151936  0.33442980    -0.14900
C2876       C  0.91640524  0.60615537  0.35229456     0.37500
N2877       N  0.89124888  0.60366481  0.37087566    -0.89100
H2878       H  0.94523742  0.65205162  0.36574574     0.18600
H2879       H  0.93716300  0.56484834  0.30307826     0.18600
N2880       N  0.99091811  0.61321899  0.29749438    -0.88100
H2881       H  0.89647016  0.62383564  0.38257321     0.35900
H2882       H  0.88623951  0.58861782  0.39163809     0.41000
H2883       H  0.49534329  0.62846679  0.27654570     0.40700
H2884       H  0.98565493  0.59304583  0.28577039     0.35500
C2885       C  0.61103834  0.96673322  0.18293800    -0.26200
C2886       C  0.63532055  0.96838466  0.16511930    -0.14300
C2887       C  0.63286086  0.94317272  0.14837929     0.36400
C2888       C  0.60596530  0.91649270  0.15007928    -0.25600
C2889       C  0.58162218  0.91486534  0.16772289    -0.14900
C2890       C  0.58413037  0.94004359  0.18462588     0.37500
N2891       N  0.55946883  0.93824098  0.20367643    -0.89100
H2892       H  0.61330269  0.98621819  0.19600978     0.18600
H2893       H  0.60372211  0.89701685  0.13700666     0.18600
N2894       N  0.65754431  0.94495133  0.12939274    -0.88100
H2895       H  0.56501708  0.95878388  0.21452227     0.35900
H2896       H  0.55494538  0.92385976  0.22507177     0.41000
H2897       H  0.66205357  0.95924965  0.10790846     0.40700
H2898       H  0.65204131  0.92437908  0.11868229     0.35500
C2899       C  0.55359591  0.88653815  0.66689757     0.03300
C2900       C  0.55199067  0.86130610  0.68127915    -0.12900
C2901       C  0.52524006  0.83428804  0.68158898     0.00800
C2902       C  0.00004049  0.83264681  0.66572448    -0.11400
C2903       C  0.00196104  0.85813873  0.64997335     0.03300
C2904       C  0.52868298  0.88499379  0.65157921    -0.10800
H2905       H  0.57161606  0.86325271  0.69360507     0.08900
H2906       H  0.97925694  0.81193827  0.66547680     0.06400
H2907       H  0.53082532  0.90475976  0.63947803     0.06200
C2908       C  0.66337062  0.99646033  0.66405629     0.03300
C2909       C  0.68840945  0.49821873  0.67927619    -0.12900
C2910       C  0.71520140  0.52510649  0.68079599     0.00800
C2911       C  0.71678149  0.55052792  0.66522863    -0.11400
C2912       C  0.69135312  0.54866755  0.64919753     0.03300
C2913       C  0.66472275  0.52156374  0.64964663    -0.10800
H2914       H  0.68644702  0.97850246  0.69130143     0.08900
H2915       H  0.73741471  0.57138200  0.66559568     0.06400
H2916       H  0.64499245  0.51944208  0.63740631     0.06200
C2917       C  0.99624927  0.66372112  0.83492127     0.03300
C2918       C  0.52153108  0.66568332  0.84991983    -0.12900
C2919       C  0.54867700  0.69235652  0.84993690     0.00800
C2920       C  0.55039573  0.71741418  0.83315511    -0.11400
C2921       C  0.52490050  0.71547765  0.81721799     0.03300
C2922       C  0.49793912  0.68870953  0.81927689    -0.10800
H2923       H  0.51953367  0.64617159  0.86257311     0.08900
H2924       H  0.57126482  0.73801712  0.83230611     0.06400
H2925       H  0.97807848  0.68642764  0.80719266     0.06200
C2926       C  0.88651976  0.55310796  0.83281735     0.03300
C2927       C  0.88499260  0.52795292  0.84737905    -0.12900
C2928       C  0.85841314  0.00073768  0.84737464     0.00800
C2929       C  0.83322156  0.99883377  0.83053253    -0.11400
C2930       C  0.83493140  0.52427668  0.81472269     0.03300
C2931       C  0.86166041  0.55127920  0.81684769    -0.10800
H2932       H  0.90453943  0.53014216  0.86021738     0.08900
H2933       H  0.81263783  0.97794169  0.82981152     0.06400
H2934       H  0.86370113  0.57104918  0.80489919     0.06200
O2935       O  0.78872722  0.99973969  0.78259122    -0.71600
O2936       O  0.73716542  0.50169288  0.71261835    -0.71900
O2937       O  0.78854130  0.50088741  0.71195683    -0.71700
O2938       O  0.73685411  0.00056109  0.78331057    -0.71700
O2939       O  0.76168472  0.54849101  0.78316544    -0.71700
O2940       O  0.81326770  0.54883406  0.71185499    -0.71700
O2941       O  0.76147995  0.54962617  0.71252777    -0.71600
O2942       O  0.81305595  0.54766364  0.78245943    -0.71800
V2943       V  0.76327500  0.00164804  0.74751902     1.35200
V2944       V  0.78689277  0.54770799  0.74758085     1.35200
C2945       C  0.81073521  0.52362422  0.79314693     0.77600
C2946       C  0.73948262  0.52574025  0.70199851     0.77700
C2947       C  0.81064929  0.52472283  0.70129261     0.77500
C2948       C  0.73966698  0.52471883  0.79411096     0.77500
O2949       O  0.54780445  0.75966673  0.71310244    -0.71600
O2950       O  0.55026840  0.81324781  0.78328675    -0.71900
O2951       O  0.54971628  0.76077969  0.78376703    -0.71700
O2952       O  0.54831865  0.81166741  0.71265158    -0.71700
O2953       O  0.00035848  0.78818896  0.71359746    -0.71700
O2954       O  0.50176386  0.73722379  0.78429521    -0.71700
O2955       O  0.50231958  0.78924531  0.78383023    -0.71600
O2956       O  0.99981895  0.73566297  0.71405929    -0.71800
V2957       V  0.54808608  0.78586437  0.74809201     1.35200
V2958       V  0.00194399  0.76306074  0.74921785     1.35200
C2959       C  0.52368087  0.73764265  0.70287691     0.77600
C2960       C  0.52646383  0.81112857  0.79432431     0.77700
C2961       C  0.52572071  0.73933831  0.79498219     0.77500
C2962       C  0.52436853  0.80976768  0.70235980     0.77500
C2963       C  0.82976905  0.52511319  0.99651198     0.03300
C2964       C  0.83104417  0.50139477  0.98176172    -0.12900
C2965       C  0.85767886  0.50104742  0.98117576     0.00800
C2966       C  0.88323011  0.52493217  0.49758154    -0.11400
C2967       C  0.88172599  0.54869049  0.51339355     0.03300
C2968       C  0.85495519  0.54872149  0.51212136    -0.10800
H2969       H  0.81126561  0.98364669  0.96962704     0.08900
H2970       H  0.90383866  0.52477766  0.49788692     0.06400
H2971       H  0.85304928  0.56644647  0.52432884     0.06200
C2972       C  0.71970413  0.52395968  0.00367740     0.03300
C2973       C  0.69490300  0.50062147  0.98787516    -0.12900
C2974       C  0.66830202  0.50089068  0.98520242     0.00800
C2975       C  0.66657220  0.52475495  0.00044910    -0.11400
C2976       C  0.69142530  0.54802970  0.51687099     0.03300
C2977       C  0.71795454  0.54748036  0.51768927    -0.10800
H2978       H  0.69700379  0.98285831  0.97613644     0.08900
H2979       H  0.64608391  0.52510374  0.99915479     0.06400
H2980       H  0.73749206  0.56517640  0.53029596     0.06200
C2981       C  0.52523892  0.71996135  0.49864638     0.03300
C2982       C  0.54891962  0.71861772  0.98433007    -0.12900
C2983       C  0.54922465  0.69197569  0.98328977     0.00800
C2984       C  0.52556499  0.66653637  0.49909772    -0.11400
C2985       C  0.50173244  0.66803902  0.51481127     0.03300
C2986       C  0.50171613  0.69480621  0.51354554    -0.10800
H2987       H  0.56668863  0.73845642  0.97238556     0.08900
H2988       H  0.52566344  0.64590790  0.49919469     0.06400
H2989       H  0.98367355  0.69651396  0.52542995     0.06200
C2990       C  0.52582866  0.82994453  0.99978451     0.03300
C2991       C  0.50307432  0.83198696  0.51560571    -0.12900
C2992       C  0.50300740  0.85877295  0.51604332     0.00800
C2993       C  0.52622244  0.88376808  0.99911848    -0.11400
C2994       C  0.54960072  0.88176439  0.98285886     0.03300
C2995       C  0.54929808  0.85482307  0.98424048    -0.10800
H2996       H  0.98519972  0.81233698  0.52790190     0.08900
H2997       H  0.52639549  0.90453086  0.99891608     0.06400
H2998       H  0.56682668  0.85264674  0.97192401     0.06200
C2999       C  0.55221609  0.68967302  0.66718710     0.03300
C3000       C  0.52736962  0.66654418  0.65122847    -0.12900
C3001       C  0.00077548  0.66680155  0.64983918     0.00800
C3002       C  0.99899163  0.69036777  0.66595375    -0.11400
C3003       C  0.52420181  0.71373434  0.68215396     0.03300
C3004       C  0.55072819  0.71320820  0.68207279    -0.10800
H3005       H  0.52932725  0.64879394  0.63918503     0.08900
H3006       H  0.97836448  0.69047817  0.66548506     0.06400
H3007       H  0.57042052  0.73087589  0.69445364     0.06200
C3008       C  0.66226384  0.69062346  0.66746948     0.03300
C3009       C  0.66404936  0.66760281  0.65149368    -0.12900
C3010       C  0.69087557  0.66772825  0.65015398     0.00800
C3011       C  0.71619631  0.69130528  0.66642319    -0.11400
C3012       C  0.71429395  0.71447121  0.68337443     0.03300
C3013       C  0.68715415  0.71379934  0.68338748    -0.10800
H3014       H  0.64437181  0.64989668  0.63913318     0.08900
H3015       H  0.73705577  0.69166235  0.66582496     0.06400
H3016       H  0.68507718  0.73120893  0.69621265     0.06200
O3017       O  0.71448214  0.59418439  0.54733292    -0.71600
O3018       O  0.71573017  0.64695583  0.61771485    -0.71900
O3019       O  0.71590038  0.59488752  0.61780816    -0.71700
O3020       O  0.71438053  0.64590404  0.54718907    -0.71700
O3021       O  0.66641696  0.62210128  0.54725600    -0.71700
O3022       O  0.66793332  0.57082007  0.61776258    -0.71700
O3023       O  0.66776619  0.62247102  0.61780557    -0.71600
O3024       O  0.66651799  0.56980052  0.54723551    -0.71800
V3025       V  0.71417369  0.62001971  0.58239445     1.35200
V3026       V  0.66808116  0.59677177  0.58256940     1.35200
C3027       C  0.69054209  0.57200617  0.53697005     0.77600
C3028       C  0.69171493  0.64446611  0.62848570     0.77700
C3029       C  0.69196062  0.57302292  0.62834206     0.77500
C3030       C  0.69044003  0.64394049  0.53678915     0.77500
C3031       C  0.85824960  0.88624398  0.66425992     0.03300
C3032       C  0.88217723  0.88502974  0.65008543    -0.12900
C3033       C  0.88239418  0.85836892  0.64906235     0.00800
C3034       C  0.85850435  0.83281871  0.66459646    -0.11400
C3035       C  0.83463138  0.83430549  0.68024695     0.03300
C3036       C  0.83468487  0.86109784  0.67907945    -0.10800
H3037       H  0.90017066  0.90493753  0.63855213     0.08900
H3038       H  0.85856383  0.81217266  0.66466313     0.06400
H3039       H  0.81672873  0.86289960  0.69076804     0.06200
C3040       C  0.85916957  0.99633017  0.66716920     0.03300
C3041       C  0.88214120  0.52119453  0.65104160    -0.12900
C3042       C  0.88154463  0.54760287  0.64852274     0.00800
C3043       C  0.85754322  0.54900659  0.66376929    -0.11400
C3044       C  0.83426565  0.52381414  0.68054482     0.03300
C3045       C  0.83515113  0.99748108  0.68119613    -0.10800
H3046       H  0.90018412  0.51946689  0.63949468     0.08900
H3047       H  0.85699872  0.56938899  0.66264403     0.06400
H3048       H  0.81756917  0.97784337  0.69371999     0.06200
O3049       O  0.98170797  0.88365980  0.54783420    -0.71600
O3050       O  0.92839999  0.88193440  0.61806116    -0.71900
O3051       O  0.98010133  0.88172673  0.61842769    -0.71700
O3052       O  0.92943526  0.88399250  0.54757113    -0.71700
O3053       O  0.90541668  0.83605510  0.54697229    -0.71700
O3054       O  0.95612351  0.83378642  0.61763689    -0.71700
O3055       O  0.90403837  0.83399629  0.61740790    -0.71600
O3056       O  0.95707429  0.83573119  0.54713337    -0.71800
V3057       V  0.95446916  0.88191185  0.58302259     1.35200
V3058       V  0.93115454  0.83584945  0.58218896     1.35200
C3059       C  0.97931101  0.85967249  0.53698989     0.77600
C3060       C  0.90626913  0.85787677  0.62824553     0.77700
C3061       C  0.97784140  0.85763212  0.62870375     0.77500
C3062       C  0.90745665  0.86011765  0.53697690     0.77500
O3063       O  0.90264290  0.59346357  0.61630977    -0.71600
O3064       O  0.95617900  0.64565223  0.54684686    -0.71900
O3065       O  0.90418775  0.59393236  0.54570375    -0.71700
O3066       O  0.95499881  0.64570315  0.61745007    -0.71700
O3067       O  0.97881934  0.62172179  0.61704150    -0.71700
O3068       O  0.92752993  0.56947486  0.54580180    -0.71700
O3069       O  0.98002716  0.62170162  0.54640081    -0.71600
O3070       O  0.92688664  0.56990730  0.61642190    -0.71800
V3071       V  0.92997219  0.61921748  0.58148284     1.35200
V3072       V  0.95285093  0.59616071  0.58149919     1.35200
C3073       C  0.90492451  0.57181556  0.62697603     0.77600
C3074       C  0.97800288  0.64357626  0.53607934     0.77700
C3075       C  0.90604419  0.57199772  0.53495479     0.77500
C3076       C  0.97666416  0.64343777  0.62808599     0.77500
C3077       C  0.72030110  0.72075145  0.00141497     0.03300
C3078       C  0.69549672  0.71912299  0.98550712    -0.12900
C3079       C  0.66858715  0.69232296  0.98385178     0.00800
C3080       C  0.66656800  0.66689174  0.99992605    -0.11400
C3081       C  0.69141334  0.66856162  0.51616814     0.03300
C3082       C  0.71816877  0.69558034  0.51618620    -0.10800
H3083       H  0.69761333  0.73889470  0.97347038     0.08900
H3084       H  0.64588359  0.64609270  0.99927574     0.06400
H3085       H  0.73766205  0.69743910  0.52878003     0.06200
C3086       C  0.83009037  0.83110733  0.00314386     0.03300
C3087       C  0.85536101  0.83296135  0.51799335    -0.12900
C3088       C  0.88261933  0.85943169  0.51703062     0.00800
C3089       C  0.88433802  0.88432787  0.99960271    -0.11400
C3090       C  0.85870256  0.88241877  0.98407340     0.03300
C3091       C  0.83173157  0.85575104  0.98678975    -0.10800
H3092       H  0.85353394  0.81343608  0.53039738     0.08900
H3093       H  0.90528034  0.90482298  0.99827643     0.06400
H3094       H  0.81181913  0.85362655  0.97511481     0.06200
C3095       C  0.99754280  0.85762402  0.83490317     0.03300
C3096       C  0.52298392  0.88134749  0.84866893    -0.12900
C3097       C  0.55013008  0.88203666  0.84832831     0.00800
C3098       C  0.55174744  0.85859116  0.83156943    -0.11400
C3099       C  0.52604367  0.83461117  0.81623694     0.03300
C3100       C  0.99900296  0.83428810  0.81926992    -0.10800
H3101       H  0.52106116  0.89893524  0.86124462     0.08900
H3102       H  0.57262633  0.85901126  0.83046710     0.06400
H3103       H  0.97906367  0.81640290  0.80760529     0.06200
C3104       C  0.88818578  0.85849383  0.83229168     0.03300
C3105       C  0.86323671  0.83518624  0.81656808    -0.12900
C3106       C  0.83642582  0.83518553  0.81505389     0.00800
C3107       C  0.83460966  0.85861837  0.83128324    -0.11400
C3108       C  0.85972560  0.88196319  0.84806540     0.03300
C3109       C  0.88647097  0.88181720  0.84757913    -0.10800
H3110       H  0.86524612  0.81756556  0.80423821     0.08900
H3111       H  0.81393791  0.85864928  0.83093546     0.06400
H3112       H  0.90598564  0.89933439  0.86043050     0.06200
O3113       O  0.88262096  0.97984466  0.95007015    -0.71600
O3114       O  0.88233499  0.92723387  0.88030227    -0.71900
O3115       O  0.88164682  0.97863773  0.87947929    -0.71700
O3116       O  0.88321065  0.92799410  0.95098521    -0.71700
O3117       O  0.83526181  0.90363809  0.95051243    -0.71700
O3118       O  0.83369390  0.95449122  0.87919666    -0.71700
O3119       O  0.83437332  0.90259244  0.87974774    -0.71600
O3120       O  0.83465519  0.95518520  0.94984687    -0.71800
V3121       V  0.88149984  0.95293525  0.91511136     1.35200
V3122       V  0.83541693  0.92941772  0.91491989     1.35200
C3123       C  0.85851579  0.97737460  0.96040172     0.77600
C3124       C  0.85855418  0.90519141  0.86940563     0.77700
C3125       C  0.85765272  0.97637094  0.86861798     0.77500
C3126       C  0.85928741  0.90616973  0.96172075     0.77500
C3127       C  0.69435999  0.55493538  0.83426228     0.03300
C3128       C  0.71703058  0.55285045  0.81761598    -0.12900
C3129       C  0.71676175  0.52591708  0.81620031     0.00800
C3130       C  0.69335979  0.00075716  0.83287052    -0.11400
C3131       C  0.67033425  0.00276662  0.84999831     0.03300
C3132       C  0.67105515  0.52993677  0.84994011    -0.10800
H3133       H  0.73437425  0.57224957  0.80444982     0.08900
H3134       H  0.69296174  0.97988584  0.83232316     0.06400
H3135       H  0.65387746  0.53210937  0.86323687     0.06200
C3136       C  0.69331921  0.66449328  0.83417444     0.03300
C3137       C  0.66998007  0.66620710  0.84950145    -0.12900
C3138       C  0.66955058  0.69281100  0.84973450     0.00800
C3139       C  0.69308590  0.71806947  0.83334397    -0.11400
C3140       C  0.71676255  0.71637393  0.81749299     0.03300
C3141       C  0.71670935  0.68957024  0.81888594    -0.10800
H3142       H  0.65250872  0.64671578  0.86237083     0.08900
H3143       H  0.69290906  0.73865351  0.83279288     0.01000
H3144       H  0.73431511  0.68758805  0.80646991     0.06200
O3145       O  0.59488364  0.71550158  0.95174153    -0.71600
O3146       O  0.64781506  0.71739872  0.88103873    -0.71900
O3147       O  0.59527634  0.71722574  0.88115363    -0.71700
O3148       O  0.64670800  0.71563825  0.95161866    -0.71700
O3149       O  0.62290496  0.66770038  0.95110260    -0.71700
O3150       O  0.57153319  0.66929447  0.88069781    -0.71700
O3151       O  0.62352544  0.66946348  0.88053697    -0.71600
O3152       O  0.57065542  0.66756105  0.95123699    -0.71800
V3153       V  0.62071154  0.71551371  0.91642314     1.35200
V3154       V  0.59763437  0.66945209  0.91577927     1.35200
C3155       C  0.57291230  0.69144445  0.96214652     0.77600
C3156       C  0.64566127  0.69349011  0.87036095     0.77700
C3157       C  0.57340372  0.69324493  0.87052570     0.77500
C3158       C  0.64455706  0.69163794  0.96211496     0.77500
O3159       O  0.59642487  0.90376760  0.88007390    -0.71600
O3160       O  0.64680986  0.95602816  0.95200917    -0.71900
O3161       O  0.59506469  0.90400075  0.95075512    -0.71700
O3162       O  0.64873230  0.95641598  0.88134653    -0.71700
O3163       O  0.62443726  0.97992015  0.88110536    -0.71700
O3164       O  0.57085547  0.92759065  0.95053614    -0.71700
O3165       O  0.62299475  0.98001044  0.95170953    -0.71600
O3166       O  0.57261584  0.92775151  0.87985837    -0.71800
V3167       V  0.62130400  0.93052862  0.91609400     1.35200
V3168       V  0.59818948  0.95334181  0.91568180     1.35200
C3169       C  0.57469261  0.90587739  0.86926185     0.77600
C3170       C  0.64451053  0.97769658  0.96288834     0.77700
C3171       C  0.57310592  0.90594431  0.96129812     0.77500
C3172       C  0.64657148  0.97818780  0.87084620     0.77500
O3173       O  0.81373239  0.78973825  0.78312509    -0.71600
O3174       O  0.76093331  0.73629797  0.71394723    -0.71900
O3175       O  0.81346831  0.78848269  0.71253815    -0.71700
O3176       O  0.76166871  0.73811639  0.78450978    -0.71700
O3177       O  0.73787481  0.76211999  0.78500130    -0.71700
O3178       O  0.78931517  0.81212850  0.71249959    -0.71700
O3179       O  0.73719142  0.76036231  0.71446926    -0.71600
O3180       O  0.79039980  0.81420891  0.78313916    -0.71800
V3181       V  0.78697771  0.76362753  0.74860076     1.35200
V3182       V  0.76417324  0.78675947  0.74866590     1.35200
C3183       C  0.81204284  0.81181359  0.79365758     0.77600
C3184       C  0.73897445  0.73832150  0.70393750     0.77700
C3185       C  0.81112520  0.81004211  0.70167590     0.77500
C3186       C  0.74008287  0.74043585  0.79567434     0.77500
C3187       C  0.66990162  0.58389734  0.82095196    -0.26200
C3188       C  0.69450990  0.58320425  0.83448475    -0.14300
C3189       C  0.71885965  0.60931191  0.84779021     0.36400
C3190       C  0.71803733  0.63566394  0.84728878    -0.25600
C3191       C  0.69334417  0.63631060  0.83393003    -0.14900
C3192       C  0.66919106  0.61029046  0.82015346     0.37500
N3193       N  0.64435829  0.61093564  0.80481152    -0.89100
H3194       H  0.65143369  0.56384417  0.81033661     0.18600
H3195       H  0.73653523  0.65573029  0.85783273     0.18600
N3196       N  0.74406725  0.60883562  0.86217650    -0.88100
H3197       H  0.62846590  0.58991573  0.79594108     0.35900
H3198       H  0.65192485  0.62448262  0.78234856     0.41000
H3199       H  0.73704915  0.59540948  0.88475999     0.40700
H3200       H  0.76011670  0.62992915  0.87064680     0.35500
C3201       C  0.91784432  0.83605092  0.85138065    -0.26200
C3202       C  0.91628100  0.85845461  0.83287137    -0.14300
C3203       C  0.94145618  0.88070797  0.81537639     0.36400
C3204       C  0.96795447  0.88023961  0.81695009    -0.25600
C3205       C  0.96949718  0.85775454  0.83523017    -0.14900
C3206       C  0.94439392  0.83559772  0.85296610     0.37500
N3207       N  0.94612972  0.81303167  0.87272866    -0.89100
H3208       H  0.89840055  0.81916898  0.86497370     0.18600
H3209       H  0.98736960  0.89711491  0.80329993     0.18600
N3210       N  0.93981070  0.90335706  0.79569190    -0.88100
H3211       H  0.92568294  0.79841860  0.88417679     0.35900
H3212       H  0.96091066  0.82335527  0.89372217     0.41000
H3213       H  0.92517833  0.89312779  0.77454620     0.40700
H3214       H  0.96032073  0.91807214  0.78446234     0.35500
C3215       C  0.76251141  0.76045370  0.53401129    -0.26200
C3216       C  0.74863096  0.74879949  0.00165221    -0.14300
C3217       C  0.76170736  0.76356958  0.96966135     0.36400
C3218       C  0.78816100  0.79067173  0.97096239    -0.25600
C3219       C  0.80200096  0.80283145  0.00348631    -0.14900
C3220       C  0.78917602  0.78747498  0.53558224     0.37500
N3221       N  0.80315679  0.79948049  0.56922227    -0.89100
H3222       H  0.75230770  0.74863265  0.55833476     0.18600
H3223       H  0.79837999  0.80216236  0.94647296     0.18600
N3224       N  0.74828610  0.75073146  0.93604939    -0.88100
H3225       H  0.79093963  0.78530952  0.58997848     0.35900
H3226       H  0.80303251  0.81917078  0.57326521     0.41000
H3227       H  0.74868371  0.73107137  0.93319915     0.40700
H3228       H  0.76074603  0.76445839  0.91509701     0.35500
C3229       C  0.85847757  0.92696628  0.69727145    -0.26200
C3230       C  0.85812595  0.91422228  0.66435366    -0.14300
C3231       C  0.85845534  0.92873683  0.63253210     0.36400
C3232       C  0.85931885  0.95575097  0.63458332    -0.25600
C3233       C  0.85958625  0.96848255  0.66745324    -0.14900
C3234       C  0.85947342  0.95408778  0.69931406     0.37500
N3235       N  0.86159819  0.96669829  0.73392561    -0.89100
H3236       H  0.85866941  0.91602127  0.72163586     0.18600
H3237       H  0.85911582  0.96665439  0.61018670     0.18600
N3238       N  0.85678627  0.91639744  0.59785656    -0.88100
H3239       H  0.84157135  0.95350818  0.74706844     0.35900
H3240       H  0.86492578  0.48808740  0.73253376     0.41000
H3241       H  0.85332453  0.89499035  0.59901038     0.40700
H3242       H  0.87705106  0.92960608  0.58519965     0.35500
C3243       C  0.59341112  0.68949384  0.63534485    -0.26200
C3244       C  0.58018619  0.68956751  0.66766662    -0.14300
C3245       C  0.59387426  0.68991061  0.69997431     0.36400
C3246       C  0.62092244  0.69057891  0.69951117    -0.25600
C3247       C  0.63417341  0.69053935  0.66717051    -0.14900
C3248       C  0.62041132  0.69011173  0.63486344     0.37500
N3249       N  0.63417596  0.69097874  0.60162829    -0.89100
H3250       H  0.58294918  0.68941547  0.61044899     0.18600
H3251       H  0.63138736  0.69066380  0.72440376     0.18600
N3252       N  0.57997321  0.68889020  0.73315340    -0.88100
H3253       H  0.63742231  0.70962981  0.58765746     0.35900
H3254       H  0.61958750  0.67227907  0.58696914     0.41000
H3255       H  0.59449380  0.70752057  0.74795769     0.40700
H3256       H  0.57667494  0.67017374  0.74701504     0.35500
C3257       C  0.54711904  0.77201979  0.01747756    -0.26200
C3258       C  0.52525507  0.74802751  0.49875722    -0.14300
C3259       C  0.00261537  0.75051318  0.48086823     0.36400
C3260       C  0.00315991  0.77753433  0.48219561    -0.25600
C3261       C  0.52560044  0.80172938  0.00018948    -0.14900
C3262       C  0.54756517  0.79899402  0.01854038     0.37500
N3263       N  0.56996292  0.82352513  0.03841499    -0.89100
H3264       H  0.56386667  0.76965258  0.03158091     0.18600
H3265       H  0.98620472  0.77991160  0.46863190     0.18600
N3266       N  0.97983380  0.72592702  0.46143886    -0.88100
H3267       H  0.58582022  0.81812082  0.54913095     0.35900
H3268       H  0.56105101  0.82845746  0.55874117     0.41000
H3269       H  0.99013277  0.72112438  0.94035258     0.40700
H3270       H  0.96522502  0.73135826  0.94958146     0.35500
C3271       C  0.77018518  0.54456387  0.98073173    -0.26200
C3272       C  0.74793457  0.52435234  0.00334755    -0.14300
C3273       C  0.75252601  0.50420456  0.52359924     0.36400
C3274       C  0.77939326  0.50477147  0.52017964    -0.25600
C3275       C  0.80166331  0.52497484  0.99739534    -0.14900
C3276       C  0.79700449  0.54508126  0.97726751     0.37500
N3277       N  0.81859857  0.56595581  0.95290090    -0.89100
H3278       H  0.76641095  0.55972292  0.96504986     0.18600
H3279       H  0.78313197  0.98952379  0.53570969     0.18600
N3280       N  0.73092502  0.98337317  0.54797792    -0.88100
H3281       H  0.80918811  0.56098837  0.92751875     0.35900
H3282       H  0.83734860  0.56385313  0.95141953     0.41000
H3283       H  0.71217660  0.98549320  0.54934383     0.40700
H3284       H  0.74031050  0.98843643  0.57337150     0.35500
C3285       C  0.94360849  0.63277897  0.85231111    -0.26200
C3286       C  0.96823421  0.63532065  0.83432395    -0.14300
C3287       C  0.96598484  0.61091889  0.81569952     0.36400
C3288       C  0.93912061  0.58407817  0.81600415    -0.25600
C3289       C  0.91449730  0.58151271  0.83396527    -0.14900
C3290       C  0.91667020  0.60594157  0.85246804     0.37500
N3291       N  0.89161807  0.60323168  0.87152702    -0.89100
H3292       H  0.94558141  0.65168379  0.86655774     0.18600
H3293       H  0.93714402  0.56520892  0.80166512     0.18600
N3294       N  0.99086530  0.61371845  0.79614932    -0.88100
H3295       H  0.89690777  0.62326388  0.88367245     0.35900
H3296       H  0.88672487  0.58794613  0.89197642     0.41000
H3297       H  0.49520818  0.62897103  0.77572219     0.40700
H3298       H  0.98553588  0.59369794  0.78394308     0.35500
C3299       C  0.61087655  0.96672829  0.68138559    -0.26200
C3300       C  0.63531880  0.96825916  0.66413183    -0.14300
C3301       C  0.63301777  0.94291920  0.64793287     0.36400
C3302       C  0.60618057  0.91619075  0.64983936    -0.25600
C3303       C  0.58172158  0.91467307  0.66704108    -0.14900
C3304       C  0.58401291  0.94003132  0.68318156     0.37500
N3305       N  0.55916162  0.93841066  0.70157058    -0.89100
H3306       H  0.61298138  0.98632260  0.69396823     0.18600
H3307       H  0.60406669  0.89660084  0.63723378     0.18600
N3308       N  0.65778597  0.94462100  0.62924155    -0.88100
H3309       H  0.56454615  0.95908391  0.71183927     0.35900
H3310       H  0.55450019  0.92434102  0.72332920     0.41000
H3311       H  0.66227634  0.95869308  0.60751908     0.40700
H3312       H  0.65238259  0.92396826  0.61888566     0.35500
loop_ 
_geom_bond_atom_site_label_1 
_geom_bond_atom_site_label_2 
_geom_bond_distance 
_geom_bond_site_symmetry_2 
_ccdc_geom_bond_type 
C1            C2   1.391       .  A
C1            C6   1.391       .  A
C1          C405   1.468       .  S
C2            C3   1.403       .  A
C2            H7   1.084       .  S
C3         C1660   1.418       .  A
C3           C64   1.485       .  S
C4            C5   1.418       .  A
C4         C1659   1.418       .  A
C4            H8   1.083       .  S
C5         C1662   1.403       .  A
C5          C163   1.485       .  S
C6         C1661   1.403       .  A
C6            H9   1.084       .  S
C10         C839   1.390       .  A
C10         C843   1.391       .  A
C10         C402   1.467       .  S
C11          C12   1.402   1_565  A
C11         C838   1.390       .  A
C11         H844   1.084       .  S
C12          C13   1.418       .  A
C12          C48   1.485       .  S
C13          C14   1.419       .  A
C13          H17   1.083       .  S
C14          C15   1.403       .  A
C14         C131   1.484       .  S
C15         C838   1.391   1_545  A
C15          H18   1.084       .  S
H16         C839   1.084       .  S
C19        C1676   1.393       .  A
C19        C1680   1.392       .  A
C19         C388   1.472       .  S
C20          C21   1.404       .  A
C20        C1675   1.393   1_455  A
C20          H25   1.084       .  S
C21          C22   1.418       .  A
C21         C259   1.489       .  S
C22          C23   1.420       .  A
C22          H26   1.083       .  S
C23          C24   1.405   1_455  A
C23          C63   1.488       .  S
C24        C1675   1.392       .  A
C24        H1683   1.084       .  S
H27        C1680   1.084       .  S
C28          C29   1.392       .  A
C28          C33   1.392       .  A
C28         C391   1.471       .  S
C29         C858   1.404       .  A
C29          H34   1.084       .  S
C30          C31   1.420       .  A
C30         C857   1.404       .  A
C30         C227   1.489       .  S
C31         C860   1.420       .  A
C31          H35   1.083       .  S
C32          C33   1.404       .  A
C32         C859   1.420   1_545  A
C32          C47   1.489       .  S
C33          H36   1.084       .  S
O37          V45   1.913       .  S
O37         C875   1.264       .  A
O38         V873   1.895       .  S
O38          C48   1.268       .  A
O39         V873   1.897       .  S
O39          C49   1.268       .  A
O40          V45   1.912       .  S
O40         C878   1.265       .  A
O41          V46   1.895       .  S
O41          C50   1.267       .  A
O42          V46   1.908       .  S
O42          C49   1.264       .  A
O43          V46   1.910       .  S
O43          C48   1.264       .  A
O44          V46   1.897       .  S
O44          C47   1.268       .  A
V45         O866   1.895       .  S
V45         O867   1.897       .  S
V45         V874   2.085       .  T
V46         V873   2.085       .  T
C47         O865   1.264   1_545  A
C49         C146   1.484       .  S
C50         C231   1.487       .  S
C50         O868   1.265       .  A
O51          V59   1.895       .  S
O51          C61   1.267       .  A
O52          V59   1.912       .  S
O52          C62   1.264       .  A
O53          V59   1.911       .  S
O53          C63   1.264       .  A
O54          V59   1.895       .  S
O54          C64   1.267       .  A
O55          V60   1.910       .  S
O55        C1720   1.264       .  A
O56        V1716   1.897       .  S
O56          C63   1.268       .  A
O57        V1716   1.898       .  S
O57          C62   1.268       .  A
O58          V60   1.912       .  S
O58        C1717   1.264       .  A
V59        V1716   2.085       .  T
V60        O1712   1.897       .  S
V60        O1713   1.898       .  S
V60        V1715   2.085       .  T
C61         C105   1.486       .  S
C61        O1714   1.264   1_455  A
C62         C201   1.489       .  S
C64        O1711   1.264       .  A
C65          C66   1.392       .  A
C65         C484   1.392       .  A
C65         C377   1.468       .  S
C66          C67   1.404       .  A
C66         H899   1.084   1_545  S
C67         C482   1.417       .  A
C67        C1053   1.484   1_545  S
C68          C69   1.416   1_556  A
C68         C481   1.417       .  A
C68          H72   1.083       .  S
C69          C70   1.403       .  A
C69         C177   1.484       .  S
C70         C479   1.392   1_554  A
C70          H73   1.084       .  S
H71         C894   1.084       .  S
C74          C75   1.391       .  A
C74         C493   1.391       .  A
C74         C374   1.468       .  S
C75          C76   1.403       .  A
C75         H908   1.084   1_545  S
C76          C77   1.419       .  A
C76        C1100   1.486   1_545  S
C77         C492   1.418       .  A
C77          H81   1.083       .  S
C78          C79   1.404       .  A
C78         C491   1.418       .  A
C78         C129   1.485       .  S
C79         C488   1.391       .  A
C79          H82   1.084       .  S
H80         C903   1.084       .  S
C83          C88   1.392   1_556  A
C83         C498   1.392       .  A
C83         C360   1.472       .  S
C84          C85   1.403       .  A
C84         C497   1.391       .  A
C84          H89   1.084       .  S
C85         C500   1.418       .  A
C85         C257   1.485       .  S
C86          C87   1.418   1_556  A
C86         C499   1.418       .  A
C86          H90   1.083       .  S
C87          C88   1.404       .  A
C87        C1832   1.486   1_455  S
C88        H1747   1.084   1_455  S
H91        C1744   1.084       .  S
C92          C97   1.392       .  A
C92         C507   1.392       .  A
C92         C363   1.471       .  S
C93          C94   1.405       .  A
C93         C506   1.392   1_554  A
C93        H1754   1.084   1_455  S
C94         C509   1.417   1_554  A
C94        C1817   1.488   1_455  S
C95          C96   1.419       .  A
C95         C508   1.418       .  A
C95          H99   1.083       .  S
C96          C97   1.403       .  A
C96         C273   1.486       .  S
C97         H100   1.084       .  S
H98        C1749   1.084       .  S
C101        C102   1.391       .  A
C101        C106   1.390       .  A
C101        C346   1.467       .  S
C102       C1759   1.403       .  A
C102        H107   1.084       .  S
C103        C104   1.419       .  A
C103       C1758   1.403       .  A
C103        C178   1.485       .  S
C104       C1761   1.418       .  A
C104        H108   1.083       .  S
C105        C106   1.402       .  A
C105       C1760   1.418   1_455  A
C106        H109   1.084       .  S
C110        C111   1.391       .  A
C110        C115   1.391       .  A
C110        C349   1.468       .  S
C111        C112   1.402       .  A
C111        H116   1.084       .  S
C112        C113   1.417       .  A
C112        C130   1.484       .  S
C113        C114   1.417       .  A
C113        H117   1.083       .  S
C114        C115   1.403       .  A
C114        C286   1.483       .  S
C115        H118   1.084       .  S
O119        V127   1.895       .  S
O119        C129   1.267       .  A
O120        V127   1.909       .  S
O120        C130   1.264       .  A
O121        V127   1.908       .  S
O121        C131   1.263       .  A
O122        V127   1.893       .  S
O122        C132   1.267       .  A
O123        V128   1.911       .  S
O123        C132   1.264       .  A
O124        V128   1.895       .  S
O124        C131   1.268       .  A
O125        V128   1.895       .  S
O125        C130   1.267       .  A
O126        V128   1.910       .  S
O126        C129   1.264       .  A
V127        V128   2.085       .  T
C132        C183   1.484       .  S
C133        C134   1.393       .  A
C133        C138   1.390       .  A
C133        C332   1.470       .  S
C134        C135   1.402       .  A
C134        H139   1.084       .  S
C135        C136   1.420       .  A
C135        C162   1.488       .  S
C136        C137   1.420       .  A
C136        H140   1.083       .  S
C137        C138   1.402       .  A
C137        C287   1.486       .  S
C138        H141   1.084       .  S
C142        C147   1.393       .  A
C142        C971   1.392       .  A
C142        C335   1.471       .  S
C143        C144   1.402       .  A
C143        C970   1.392   1_545  A
C143        H148   1.084       .  S
C144        C145   1.417       .  A
C144        C175   1.486       .  S
C145        C146   1.418       .  A
C145        H149   1.083       .  S
C146        C975   1.403   1_545  A
C147        C974   1.403       .  A
C147        H150   1.084       .  S
O151        V159   1.915       .  S
O151        C161   1.266       .  A
O152        V159   1.900       .  S
O152        C162   1.269       .  A
O153        V159   1.895       .  S
O153        C163   1.267       .  A
O154        V159   1.910       .  S
O154        C164   1.263       .  A
O155        V160   1.894       .  S
O155        C164   1.268       .  A
O156        V160   1.909       .  S
O156        C163   1.264       .  A
O157        V160   1.910       .  S
O157        C162   1.263       .  A
O158        V160   1.894       .  S
O158        C161   1.267       .  A
V159        V160   2.085       .  T
C161       C1750   1.488       .  S
C164        C190   1.485       .  S
O165        V173   1.910       .  S
O165        C175   1.264       .  A
O166        V173   1.895       .  S
O166        C176   1.267       .  A
O167        V173   1.894       .  S
O167        C177   1.267       .  A
O168        V173   1.908       .  S
O168        C178   1.263       .  A
O169        V174   1.896       .  S
O169        C178   1.268       .  A
O170        V174   1.910       .  S
O170        C177   1.264       .  A
O171        V174   1.910       .  S
O171        C176   1.264       .  A
O172        V174   1.896       .  S
O172        C175   1.267       .  A
V173        V174   2.085       .  T
C176       C1743   1.486       .  S
C179        C180   1.393       .  A
C179        C598   1.391       .  A
C179        C318   1.473       .  S
C180        C181   1.403       .  A
C180        H185   1.084       .  S
C181        C182   1.417       .  A
C181        C260   1.485       .  S
C182        C597   1.417       .  A
C182        H186   1.083       .  S
C183        C184   1.403       .  A
C183        C596   1.418       .  A
C184        C593   1.391       .  A
C184        H187   1.084       .  S
C188        C193   1.394       .  A
C188        C603   1.391       .  A
C188        C321   1.473       .  S
C189        C190   1.402       .  A
C189        C602   1.390       .  A
C189        H194   1.084       .  S
C190        C605   1.419   1_554  A
C191        C192   1.419       .  A
C191        C604   1.418       .  A
C191        H195   1.083       .  S
C192        C193   1.404       .  A
C192        C228   1.489       .  S
C193        H196   1.084       .  S
C197        C202   1.392       .  A
C197       C1854   1.391       .  A
C197        C307   1.471       .  S
C198        C199   1.403       .  A
C198       C1853   1.391   1_455  A
C198        H203   1.084       .  S
C199        C200   1.420       .  A
C199        C271   1.489       .  S
C200        C201   1.421       .  A
C200        H204   1.083       .  S
C201       C1858   1.405   1_455  A
C202       C1857   1.405       .  A
C202        H205   1.084       .  S
C206        C207   1.392       .  A
C206        C211   1.393       .  A
C206        C304   1.472       .  S
C207        C208   1.404       .  A
C207        H212   1.084       .  S
C208        C209   1.415       .  A
C208        C285   1.483       .  S
C209        C210   1.415       .  A
C209        H213   1.083       .  S
C210        C211   1.404       .  A
C210        C226   1.483       .  S
C211        H214   1.084       .  S
O215        V223   1.906       .  S
O215        C225   1.263       .  A
O216        V223   1.893       .  S
O216        C226   1.266       .  A
O217        V223   1.898       .  S
O217        C227   1.268       .  A
O218        V223   1.912       .  S
O218        C228   1.265       .  A
O219        V224   1.899       .  S
O219        C228   1.268       .  A
O220        V224   1.912       .  S
O220        C227   1.264       .  A
O221        V224   1.910       .  S
O221        C226   1.265       .  A
O222        V224   1.898       .  S
O222        C225   1.268       .  A
V223        V224   2.085       .  T
C225        C895   1.484       .  S
C229        C230   1.394       .  A
C229        C234   1.394       .  A
C229        C290   1.476       .  S
C230        C231   1.405       .  A
C230        H235   1.084       .  S
C231       C1060   1.417       .  A
C232        C233   1.417       .  A
C232       C1059   1.417       .  A
C232        H236   1.083       .  S
C233       C1062   1.404       .  A
C233        C274   1.486       .  S
C234       C1061   1.404       .  A
C234        H237   1.084       .  S
C238        C239   1.395       .  A
C238        C243   1.392       .  A
C238        C293   1.476       .  S
C239        C240   1.405       .  A
C239        H244   1.084       .  S
C240        C241   1.418       .  A
C240        C258   1.488       .  S
C241        C242   1.418       .  A
C241        H245   1.083       .  S
C242        C243   1.403       .  A
C242        C288   1.485       .  S
C243        H246   1.084       .  S
O247        V255   1.896       .  S
O247        C257   1.268       .  A
O248        V255   1.912       .  S
O248        C258   1.265       .  A
O249        V255   1.913       .  S
O249        C259   1.265       .  A
O250        V255   1.895       .  S
O250        C260   1.267       .  A
O251        V256   1.909       .  S
O251        C260   1.264       .  A
O252        V256   1.897       .  S
O252        C259   1.268       .  A
O253        V256   1.897       .  S
O253        C258   1.267       .  A
O254        V256   1.909       .  S
O254        C257   1.264       .  A
V255        V256   2.085       .  T
O261        V269   1.913       .  S
O261        C271   1.264       .  A
O262        V269   1.897       .  S
O262        C272   1.268       .  A
O263        V269   1.898       .  S
O263        C273   1.268       .  A
O264        V269   1.911       .  S
O264        C274   1.265       .  A
O265        V270   1.896       .  S
O265        C274   1.267       .  A
O266        V270   1.909       .  S
O266        C273   1.264       .  A
O267        V270   1.910       .  S
O267        C272   1.264       .  A
O268        V270   1.897       .  S
O268        C271   1.268       .  A
V269        V270   2.085       .  T
C272        C904   1.486       .  S
O275        V283   1.894       .  S
O275        C285   1.267       .  A
O276        V283   1.908       .  S
O276        C286   1.264       .  A
O277        V283   1.910       .  S
O277        C287   1.264       .  A
O278        V283   1.895       .  S
O278        C288   1.267       .  A
O279        V284   1.910       .  S
O279        C288   1.264       .  A
O280        V284   1.896       .  S
O280        C287   1.268       .  A
O281        V284   1.894       .  S
O281        C286   1.267       .  A
O282        V284   1.908       .  S
O282        C285   1.264       .  A
V283        V284   2.085       .  T
C289        C290   1.402       .  A
C289        C294   1.402       .  A
C289        H296   1.084       .  S
C290        C291   1.410       .  A
C291        C292   1.402       .  A
C291        N298   1.438       .  S
C292        C293   1.403       .  A
C292        H297   1.084       .  S
C293        C294   1.410       .  A
C294        N295   1.438       .  S
N295        H299   1.046       .  S
N295        H300   1.046       .  S
N298        H301   1.046       .  S
N298        H302   1.046       .  S
C303        C304   1.402       .  A
C303        C308   1.403       .  A
C303        H310   1.084       .  S
C304        C305   1.409       .  A
C305        C306   1.401       .  A
C305        N312   1.438       .  S
C306        C307   1.401       .  A
C306        H311   1.084       .  S
C307        C308   1.409       .  A
C308        N309   1.438       .  S
N309        H313   1.046       .  S
N309        H314   1.046       .  S
N312        H315   1.046       .  S
N312        H316   1.046       .  S
C317        C322   1.402       .  A
C317        C732   1.403       .  A
C317        H324   1.084       .  S
C318        C319   1.409       .  A
C318        C731   1.403       .  A
C319        C320   1.400       .  A
C319        N326   1.438       .  S
C320        C321   1.402       .  A
C320        H325   1.084       .  S
C321        C736   1.411       .  A
C322        C735   1.411       .  A
C322        N323   1.439       .  S
N323        H327   1.046       .  S
N323        H328   1.046       .  S
N326        H329   1.046       .  S
N326        H330   1.046       .  S
C331        C332   1.403       .  A
C331        C336   1.397       .  A
C331        H338   1.085       .  S
C332        C333   1.414       .  A
C333        C334   1.394       .  A
C333        N340   1.439       .  S
C334        C335   1.402       .  A
C334        H339   1.085       .  S
C335        C336   1.416       .  A
C336        N337   1.439       .  S
N337        H341   1.046       .  S
N337       H1170   1.043       .  S
N340        H343   1.043       .  S
N340        H344   1.046       .  S
H342       N1165   1.043       .  S
C345        C346   1.401       .  A
C345        C350   1.398       .  A
C345        H352   1.084       .  S
C346        C347   1.407       .  A
C347        C348   1.398       .  A
C347        N354   1.433       .  S
C348        C349   1.402       .  A
C348        H353   1.084       .  S
C349        C350   1.407       .  A
C350        N351   1.433       .  S
N351        H355   1.046       .  S
N351        H356   1.045       .  S
N354        H357   1.046       .  S
N354        H358   1.046       .  S
C359        C364   1.401       .  A
C359        C774   1.401       .  A
C359        H366   1.084       .  S
C360        C773   1.401   1_556  A
C360       C2017   1.409       .  A
C361        C362   1.402       .  A
C361       C2016   1.409       .  A
C361        N368   1.438       .  S
C362       C2433   1.402   1_556  A
C362        H367   1.084       .  S
C363        C364   1.409       .  A
C363       C2432   1.402       .  A
C364        N365   1.438       .  S
N365        H783   1.046       .  S
N365        H784   1.046       .  S
N368        H785   1.046       .  S
N368        H786   1.046       .  S
H369        N779   1.046       .  S
H370        N779   1.046       .  S
H371        N782   1.046       .  S
H372        N782   1.046       .  S
C373        C374   1.401       .  A
C373        C378   1.397       .  A
C373        H380   1.084       .  S
C374        C789   1.414       .  A
C375        C376   1.398       .  A
C375        C788   1.414       .  A
C375       N1210   1.440   1_545  S
C376        C791   1.402   1_554  A
C376       H1209   1.084   1_545  S
C377        C378   1.415       .  A
C377        C790   1.402       .  A
C378        N379   1.440       .  S
N379        H383   1.046       .  S
N379        H384   1.043       .  S
H381       C1204   1.084       .  S
N382       C1203   1.440       .  S
N382        H385   1.043       .  S
N382        H386   1.046       .  S
C387        C388   1.402       .  A
C387        C392   1.403       .  A
C387        H394   1.084       .  S
C388        C389   1.409       .  A
C389        C390   1.401       .  A
C389        N396   1.438       .  S
C390        C391   1.401       .  A
C390        H395   1.084       .  S
C391        C392   1.410       .  A
C392        N393   1.438       .  S
N393        H397   1.046       .  S
N393        H398   1.046       .  S
N396        H400   1.046       .  S
N396       H2055   1.046       .  S
H399       N2052   1.046       .  S
C401        C402   1.401       .  A
C401        C406   1.400       .  A
C401        H408   1.084       .  S
C402        C403   1.409       .  A
C403        C404   1.400       .  A
C403        N410   1.438       .  S
C404        C405   1.401       .  A
C404        H409   1.084       .  S
C405        C406   1.409       .  A
C406        N407   1.438       .  S
N407        H411   1.046       .  S
N407        H412   1.046       .  S
N410        H413   1.046       .  S
N410        H414   1.046       .  S
C415        C416   1.391       .  A
C415        C420   1.390       .  A
C415        C819   1.468       .  S
C416        C417   1.403       .  A
C416        H421   1.084       .  S
C417       C2074   1.418       .  A
C417        C478   1.485       .  S
C418       C2073   1.418       .  A
C418        C419   1.418       .  A
C418        H422   1.083       .  S
C419       C2076   1.402       .  A
C419        C577   1.484       .  S
C420       C2075   1.402       .  A
C420        H423   1.084       .  S
C424       C1253   1.391       .  A
C424       C1257   1.391       .  A
C424        C816   1.468       .  S
C425       C1252   1.391       .  A
C425        C426   1.402   1_565  A
C425       H1258   1.084       .  S
C426        C427   1.419       .  A
C426        C462   1.486       .  S
C427        C428   1.419       .  A
C427        H431   1.083       .  S
C428        C429   1.403       .  A
C428        C545   1.485       .  S
C429       C1252   1.391   1_545  A
C429        H432   1.084       .  S
H430       C1253   1.084       .  S
C433       C2090   1.393       .  A
C433       C2094   1.392       .  A
C433        C802   1.472       .  S
C434       C2089   1.393   1_455  A
C434        C435   1.405       .  A
C434        H439   1.084       .  S
C435        C436   1.418       .  A
C435        C673   1.489       .  S
C436        C437   1.419       .  A
C436        H440   1.083       .  S
C437        C438   1.404   1_455  A
C437        C477   1.487       .  S
C438       C2089   1.392       .  A
C438       H2097   1.084       .  S
H441       C2094   1.084       .  S
C442        C443   1.392       .  A
C442        C447   1.392       .  A
C442        C805   1.472       .  S
C443       C1272   1.404       .  A
C443        H448   1.084       .  S
C444       C1271   1.404       .  A
C444        C445   1.420       .  A
C444        C641   1.489       .  S
C445       C1274   1.420       .  A
C445        H449   1.083       .  S
C446       C1273   1.420   1_545  A
C446        C447   1.405       .  A
C446        C461   1.490       .  S
C447        H450   1.084       .  S
O451        V459   1.913       .  S
O451       C1289   1.265       .  A
O452       V1287   1.896       .  S
O452        C462   1.268       .  A
O453       V1287   1.897       .  S
O453        C463   1.267       .  A
O454        V459   1.911       .  S
O454       C1292   1.265       .  A
O455        V460   1.896       .  S
O455        C464   1.267       .  A
O456        V460   1.908       .  S
O456        C463   1.264       .  A
O457        V460   1.911       .  S
O457        C462   1.264       .  A
O458        V460   1.897       .  S
O458        C461   1.268       .  A
V459       O1280   1.896       .  S
V459       O1281   1.897       .  S
V459       V1288   2.085       .  T
V460       V1287   2.085       .  T
C461       O1279   1.265   1_545  A
C463        C560   1.484       .  S
C464        C645   1.486       .  S
C464       O1282   1.265       .  A
O465        V473   1.895       .  S
O465        C475   1.267       .  A
O466        V473   1.912       .  S
O466        C476   1.264       .  A
O467        V473   1.911       .  S
O467        C477   1.264       .  A
O468        V473   1.895       .  S
O468        C478   1.267       .  A
O469        V474   1.910       .  S
O469       C2134   1.264       .  A
O470       V2130   1.897       .  S
O470        C477   1.268       .  A
O471       V2130   1.898       .  S
O471        C476   1.268       .  A
O472        V474   1.913       .  S
O472       C2131   1.264       .  A
V473       V2130   2.085       .  T
V474       O2126   1.897       .  S
V474       O2127   1.898       .  S
V474       V2129   2.085       .  T
C475        C519   1.487       .  S
C475       O2128   1.264   1_455  A
C476        C615   1.490       .  S
C478       O2125   1.264       .  A
C479        C480   1.392       .  A
C479        C791   1.468       .  S
C480        C481   1.404       .  A
C480       H1313   1.084   1_545  S
C481       C1467   1.484   1_545  S
C482        C483   1.416       .  A
C482        H486   1.083       .  S
C483        C484   1.403       .  A
C483        C591   1.484       .  S
C484        H487   1.084       .  S
H485       C1308   1.084       .  S
C488        C489   1.391   1_554  A
C488        C788   1.468       .  S
C489        C490   1.403       .  A
C489       H1322   1.084   1_545  S
C490        C491   1.419   1_556  A
C490       C1514   1.486   1_545  S
C491        H495   1.083   1_554  S
C492        C493   1.404       .  A
C492        C543   1.486       .  S
C493        H496   1.084       .  S
H494       C1317   1.084       .  S
C497        C502   1.391       .  A
C497        C774   1.470       .  S
C498        C499   1.404       .  A
C498        H503   1.084       .  S
C499        C671   1.485       .  S
C500        C501   1.418       .  A
C500        H504   1.083       .  S
C501        C502   1.403       .  A
C501       C2246   1.485   1_455  S
C502       H2161   1.084   1_455  S
H505       C2158   1.084       .  S
C506        C511   1.393       .  A
C506        C777   1.472       .  S
C507        C508   1.405       .  A
C507       H2168   1.084   1_455  S
C508       C2231   1.488   1_455  S
C509        C510   1.418       .  A
C509        H513   1.083       .  S
C510        C511   1.404       .  A
C510        C687   1.486       .  S
C511        H514   1.084       .  S
H512       C2163   1.084       .  S
C515        C516   1.390       .  A
C515        C520   1.391       .  A
C515        C760   1.467       .  S
C516       C2173   1.403       .  A
C516        H521   1.084       .  S
C517       C2172   1.402       .  A
C517        C518   1.419       .  A
C517        C592   1.485       .  S
C518       C2175   1.418       .  A
C518        H522   1.083       .  S
C519       C2174   1.418   1_455  A
C519        C520   1.403       .  A
C520        H523   1.084       .  S
C524        C525   1.392       .  A
C524        C529   1.392       .  A
C524        C763   1.468       .  S
C525        C526   1.402       .  A
C525        H530   1.084       .  S
C526        C527   1.417       .  A
C526        C544   1.484       .  S
C527        C528   1.417       .  A
C527        H531   1.083       .  S
C528        C529   1.403       .  A
C528        C700   1.484       .  S
C529        H532   1.084       .  S
O533        V541   1.895       .  S
O533        C543   1.267       .  A
O534        V541   1.909       .  S
O534        C544   1.264       .  A
O535        V541   1.907       .  S
O535        C545   1.263       .  A
O536        V541   1.892       .  S
O536        C546   1.267       .  A
O537        V542   1.911       .  S
O537        C546   1.264       .  A
O538        V542   1.896       .  S
O538        C545   1.268       .  A
O539        V542   1.895       .  S
O539        C544   1.267       .  A
O540        V542   1.911       .  S
O540        C543   1.264       .  A
V541        V542   2.085       .  T
C546        C597   1.484       .  S
C547        C548   1.392       .  A
C547        C552   1.390       .  A
C547        C746   1.468       .  S
C548        C549   1.403       .  A
C548        H553   1.084       .  S
C549        C550   1.419       .  A
C549        C576   1.487       .  S
C550        C551   1.419       .  A
C550        H554   1.083       .  S
C551        C552   1.403       .  A
C551        C701   1.486       .  S
C552        H555   1.084       .  S
C556       C1385   1.391       .  A
C556        C561   1.392       .  A
C556        C749   1.469       .  S
C557       C1384   1.391   1_545  A
C557        C558   1.403       .  A
C557        H562   1.084       .  S
C558        C559   1.417       .  A
C558        C589   1.485       .  S
C559        C560   1.417       .  A
C559        H563   1.083       .  S
C560       C1389   1.403   1_545  A
C561       C1388   1.403       .  A
C561        H564   1.084       .  S
O565        V573   1.915       .  S
O565        C575   1.265       .  A
O566        V573   1.899       .  S
O566        C576   1.268       .  A
O567        V573   1.894       .  S
O567        C577   1.267       .  A
O568        V573   1.911       .  S
O568        C578   1.264       .  A
O569        V574   1.893       .  S
O569        C578   1.267       .  A
O570        V574   1.908       .  S
O570        C577   1.263       .  A
O571        V574   1.910       .  S
O571        C576   1.264       .  A
O572        V574   1.896       .  S
O572        C575   1.267       .  A
V573        V574   2.085       .  T
C575       C2164   1.489       .  S
C578        C604   1.486       .  S
O579        V587   1.910       .  S
O579        C589   1.264       .  A
O580        V587   1.895       .  S
O580        C590   1.268       .  A
O581        V587   1.893       .  S
O581        C591   1.267       .  A
O582        V587   1.908       .  S
O582        C592   1.263       .  A
O583        V588   1.896       .  S
O583        C592   1.268       .  A
O584        V588   1.909       .  S
O584        C591   1.264       .  A
O585        V588   1.910       .  S
O585        C590   1.264       .  A
O586        V588   1.894       .  S
O586        C589   1.267       .  A
V587        V588   2.085       .  T
C590       C2157   1.486       .  S
C593        C594   1.393   1_554  A
C593        C732   1.471       .  S
C594        C595   1.403       .  A
C594        H599   1.084       .  S
C595        C596   1.418   1_556  A
C595        C674   1.486       .  S
C596        H600   1.083   1_554  S
C597        C598   1.403       .  A
C598        H601   1.084       .  S
C602        C607   1.394   1_554  A
C602        C735   1.471       .  S
C603        C604   1.403       .  A
C603        H608   1.084       .  S
C605        C606   1.420       .  A
C605        H609   1.083       .  S
C606        C607   1.404       .  A
C606        C642   1.489       .  S
C607        H610   1.084       .  S
C611       C2268   1.391       .  A
C611        C616   1.392       .  A
C611        C721   1.471       .  S
C612       C2267   1.391   1_455  A
C612        C613   1.403       .  A
C612        H617   1.084       .  S
C613        C614   1.420       .  A
C613        C685   1.489       .  S
C614        C615   1.421       .  A
C614        H618   1.083       .  S
C615       C2272   1.405   1_455  A
C616       C2271   1.405       .  A
C616        H619   1.084       .  S
C620        C621   1.393       .  A
C620        C625   1.393       .  A
C620        C718   1.472       .  S
C621        C622   1.404       .  A
C621        H626   1.084       .  S
C622        C623   1.415       .  A
C622        C699   1.483       .  S
C623        C624   1.415       .  A
C623        H627   1.083       .  S
C624        C625   1.404       .  A
C624        C640   1.483       .  S
C625        H628   1.084       .  S
O629        V637   1.906       .  S
O629        C639   1.263       .  A
O630        V637   1.894       .  S
O630        C640   1.266       .  A
O631        V637   1.898       .  S
O631        C641   1.268       .  A
O632        V637   1.912       .  S
O632        C642   1.264       .  A
O633        V638   1.900       .  S
O633        C642   1.268       .  A
O634        V638   1.913       .  S
O634        C641   1.265       .  A
O635        V638   1.910       .  S
O635        C640   1.265       .  A
O636        V638   1.898       .  S
O636        C639   1.267       .  A
V637        V638   2.085       .  T
C639       C1309   1.484       .  S
C643        C644   1.394       .  A
C643        C648   1.394       .  A
C643        C704   1.476       .  S
C644        C645   1.404       .  A
C644        H649   1.084       .  S
C645       C1474   1.417       .  A
C646       C1473   1.417       .  A
C646        C647   1.417       .  A
C646        H650   1.083       .  S
C647       C1476   1.404       .  A
C647        C688   1.487       .  S
C648       C1475   1.404       .  A
C648        H651   1.084       .  S
C652        C653   1.394       .  A
C652        C657   1.392       .  A
C652        C707   1.476       .  S
C653        C654   1.405       .  A
C653        H658   1.084       .  S
C654        C655   1.418       .  A
C654        C672   1.488       .  S
C655        C656   1.418       .  A
C655        H659   1.083       .  S
C656        C657   1.403       .  A
C656        C702   1.485       .  S
C657        H660   1.084       .  S
O661        V669   1.896       .  S
O661        C671   1.267       .  A
O662        V669   1.912       .  S
O662        C672   1.265       .  A
O663        V669   1.914       .  S
O663        C673   1.265       .  A
O664        V669   1.896       .  S
O664        C674   1.268       .  A
O665        V670   1.910       .  S
O665        C674   1.264       .  A
O666        V670   1.897       .  S
O666        C673   1.268       .  A
O667        V670   1.897       .  S
O667        C672   1.268       .  A
O668        V670   1.909       .  S
O668        C671   1.264       .  A
V669        V670   2.085       .  T
O675        V683   1.913       .  S
O675        C685   1.264       .  A
O676        V683   1.896       .  S
O676        C686   1.268       .  A
O677        V683   1.897       .  S
O677        C687   1.268       .  A
O678        V683   1.911       .  S
O678        C688   1.265       .  A
O679        V684   1.897       .  S
O679        C688   1.267       .  A
O680        V684   1.910       .  S
O680        C687   1.264       .  A
O681        V684   1.910       .  S
O681        C686   1.264       .  A
O682        V684   1.897       .  S
O682        C685   1.268       .  A
V683        V684   2.085       .  T
C686       C1318   1.486       .  S
O689        V697   1.894       .  S
O689        C699   1.266       .  A
O690        V697   1.908       .  S
O690        C700   1.264       .  A
O691        V697   1.910       .  S
O691        C701   1.264       .  A
O692        V697   1.895       .  S
O692        C702   1.268       .  A
O693        V698   1.909       .  S
O693        C702   1.264       .  A
O694        V698   1.896       .  S
O694        C701   1.268       .  A
O695        V698   1.896       .  S
O695        C700   1.267       .  A
O696        V698   1.909       .  S
O696        C699   1.264       .  A
V697        V698   2.085       .  T
C703        C704   1.402       .  A
C703        C708   1.402       .  A
C703        H710   1.084       .  S
C704        C705   1.410       .  A
C705        C706   1.402       .  A
C705        N712   1.438       .  S
C706        C707   1.403       .  A
C706        H711   1.084       .  S
C707        C708   1.410       .  A
C708        N709   1.438       .  S
N709        H713   1.046       .  S
N709        H714   1.046       .  S
N712        H715   1.045       .  S
N712        H716   1.046       .  S
C717        C718   1.402       .  A
C717        C722   1.403       .  A
C717        H724   1.084       .  S
C718        C719   1.409       .  A
C719        C720   1.401       .  A
C719        N726   1.438       .  S
C720        C721   1.401       .  A
C720        H725   1.084       .  S
C721        C722   1.409       .  A
C722        N723   1.438       .  S
N723        H727   1.046       .  S
N723        H728   1.046       .  S
N726        H729   1.046       .  S
N726        H730   1.046       .  S
C731        C736   1.402       .  A
C731        H738   1.084       .  S
C732        C733   1.409   1_554  A
C733        C734   1.399       .  A
C733        N740   1.438       .  S
C734        C735   1.401   1_556  A
C734        H739   1.084       .  S
C736        N737   1.439       .  S
N737        H741   1.046       .  S
N737        H742   1.046       .  S
N740        H743   1.046       .  S
N740        H744   1.046       .  S
C745        C746   1.402       .  A
C745        C750   1.397       .  A
C745        H752   1.084       .  S
C746        C747   1.414       .  A
C747        C748   1.395       .  A
C747        N754   1.439       .  S
C748        C749   1.402       .  A
C748        H753   1.084       .  S
C749        C750   1.415       .  A
C750        N751   1.439       .  S
N751        H755   1.045       .  S
N751       H1584   1.043       .  S
N754        H757   1.043       .  S
N754        H758   1.045       .  S
H756       N1579   1.043       .  S
C759        C760   1.401       .  A
C759        C764   1.398       .  A
C759        H766   1.084       .  S
C760        C761   1.407       .  A
C761        C762   1.399       .  A
C761        N768   1.433       .  S
C762        C763   1.402       .  A
C762        H767   1.084       .  S
C763        C764   1.408       .  A
C764        N765   1.433       .  S
N765        H769   1.046       .  S
N765        H770   1.046       .  S
N768        H771   1.045       .  S
N768        H772   1.046       .  S
C773        C778   1.402       .  A
C773        H780   1.084       .  S
C774       C2431   1.409       .  A
C775       C2430   1.409       .  A
C775        C776   1.402       .  A
C775        N782   1.438       .  S
C776       C2019   1.402       .  A
C776        H781   1.084       .  S
C777       C2018   1.402       .  A
C777        C778   1.409   1_556  A
C778        N779   1.438       .  S
C787        C788   1.401   1_556  A
C787        C792   1.397       .  A
C787        H794   1.084       .  S
C789        C790   1.398       .  A
C789       N1624   1.439   1_545  S
C790       H1623   1.084   1_545  S
C791        C792   1.415       .  A
C792        N793   1.440       .  S
N793        H797   1.046       .  S
N793        H798   1.043       .  S
H795       C1618   1.084       .  S
N796       C1617   1.439       .  S
N796        H799   1.043       .  S
N796        H800   1.046       .  S
C801        C802   1.402       .  A
C801        C806   1.404       .  A
C801        H808   1.084       .  S
C802        C803   1.409       .  A
C803        C804   1.401       .  A
C803        N810   1.438       .  S
C804        C805   1.401       .  A
C804        H809   1.084       .  S
C805        C806   1.410       .  A
C806        N807   1.438       .  S
N807        H811   1.046       .  S
N807        H812   1.046       .  S
N810       H2469   1.046       .  S
N810        H814   1.046       .  S
H813       N2466   1.046       .  S
C815        C816   1.401       .  A
C815        C820   1.399       .  A
C815        H822   1.084       .  S
C816        C817   1.409       .  A
C817        C818   1.400       .  A
C817        N824   1.438       .  S
C818        C819   1.401       .  A
C818        H823   1.084       .  S
C819        C820   1.409       .  A
C820        N821   1.438       .  S
N821        H825   1.046       .  S
N821        H826   1.046       .  S
N824        H827   1.046       .  S
N824        H828   1.046       .  S
C829        C830   1.391       .  A
C829        C834   1.391       .  A
C829       C1233   1.468       .  S
C830        C831   1.403       .  A
C830        H835   1.084       .  S
C831       C2488   1.418       .  A
C831        C892   1.485       .  S
C832       C2487   1.418       .  A
C832        C833   1.418       .  A
C832        H836   1.083       .  S
C833       C2490   1.403       .  A
C833        C991   1.485       .  S
C834       C2489   1.403       .  A
C834        H837   1.084       .  S
C838       C1230   1.467       .  S
C839        C840   1.402       .  A
C840        C841   1.418       .  A
C840        C876   1.485       .  S
C841        C842   1.419       .  A
C841        H845   1.083       .  S
C842        C843   1.403       .  A
C842        C959   1.484       .  S
C843        H846   1.084       .  S
C847       C2504   1.393       .  A
C847       C2508   1.392       .  A
C847       C1216   1.472       .  S
C848       C2503   1.393   1_455  A
C848        C849   1.404       .  A
C848        H853   1.084       .  S
C849        C850   1.418       .  A
C849       C1087   1.489       .  S
C850        C851   1.420       .  A
C850        H854   1.083       .  S
C851        C852   1.405   1_455  A
C851        C891   1.488       .  S
C852       C2503   1.392       .  A
C852       H2511   1.084       .  S
H855       C2508   1.084       .  S
C856        C857   1.392       .  A
C856        C861   1.392       .  A
C856       C1219   1.471       .  S
C857        H862   1.084       .  S
C858        C859   1.420   1_545  A
C858       C1055   1.489   1_545  S
C859        H863   1.083       .  S
C860        C861   1.404       .  A
C860        C875   1.489       .  S
C861        H864   1.084       .  S
O865        V873   1.913   1_565  S
O866        C876   1.268       .  A
O867        C877   1.268       .  A
O868        V873   1.912       .  S
O869        V874   1.895       .  S
O869        C878   1.267       .  A
O870        V874   1.908       .  S
O870        C877   1.264       .  A
O871        V874   1.910       .  S
O871        C876   1.264       .  A
O872        V874   1.897       .  S
O872        C875   1.268       .  A
C877        C974   1.484       .  S
C878       C1059   1.487       .  S
O879        V887   1.895       .  S
O879        C889   1.267       .  A
O880        V887   1.912       .  S
O880        C890   1.264       .  A
O881        V887   1.911       .  S
O881        C891   1.264       .  A
O882        V887   1.895       .  S
O882        C892   1.267       .  A
O883        V888   1.910       .  S
O883       C2548   1.264       .  A
O884       V2544   1.897       .  S
O884        C891   1.268       .  A
O885       V2544   1.898       .  S
O885        C890   1.268       .  A
O886        V888   1.912       .  S
O886       C2545   1.264       .  A
V887       V2544   2.085       .  T
V888       O2540   1.897       .  S
V888       O2541   1.898       .  S
V888       V2543   2.085       .  T
C889        C933   1.486       .  S
C889       O2542   1.264   1_455  A
C890       C1029   1.489       .  S
C892       O2539   1.264       .  A
C893        C894   1.392       .  A
C893       C1312   1.392       .  A
C893       C1205   1.468       .  S
C894        C895   1.404       .  A
C895       C1310   1.417       .  A
C896       C1309   1.417       .  A
C896        C897   1.416   1_556  A
C896        H900   1.083       .  S
C897        C898   1.403       .  A
C897       C1005   1.484       .  S
C898       C1307   1.392   1_554  A
C898        H901   1.084       .  S
C902        C903   1.391       .  A
C902       C1321   1.391       .  A
C902       C1202   1.468       .  S
C903        C904   1.403       .  A
C904        C905   1.419       .  A
C905       C1320   1.418       .  A
C905        H909   1.083       .  S
C906       C1319   1.418       .  A
C906        C907   1.404       .  A
C906        C957   1.485       .  S
C907       C1316   1.391       .  A
C907        H910   1.084       .  S
C911       C1326   1.392       .  A
C911        C916   1.392   1_556  A
C911       C1188   1.472       .  S
C912       C1325   1.391       .  A
C912        C913   1.403       .  A
C912        H917   1.084       .  S
C913       C1328   1.418       .  A
C913       C1085   1.485       .  S
C914       C1327   1.418       .  A
C914        C915   1.418   1_556  A
C914        H918   1.083       .  S
C915        C916   1.404       .  A
C915       C2660   1.486   1_455  S
C916       H2575   1.084   1_455  S
H919       C2572   1.084       .  S
C920       C1335   1.392       .  A
C920        C925   1.392       .  A
C920       C1191   1.471       .  S
C921       C1334   1.392   1_554  A
C921        C922   1.405       .  A
C921       H2582   1.084   1_455  S
C922       C1337   1.417   1_554  A
C922       C2645   1.488   1_455  S
C923       C1336   1.418       .  A
C923        C924   1.419       .  A
C923        H927   1.083       .  S
C924        C925   1.403       .  A
C924       C1101   1.486       .  S
C925        H928   1.084       .  S
H926       C2577   1.084       .  S
C929        C930   1.391       .  A
C929        C934   1.390       .  A
C929       C1174   1.467       .  S
C930       C2587   1.403       .  A
C930        H935   1.084       .  S
C931       C2586   1.403       .  A
C931        C932   1.419       .  A
C931       C1006   1.485       .  S
C932       C2589   1.418       .  A
C932        H936   1.083       .  S
C933       C2588   1.418   1_455  A
C933        C934   1.402       .  A
C934        H937   1.084       .  S
C938        C939   1.391       .  A
C938        C943   1.391       .  A
C938       C1177   1.468       .  S
C939        C940   1.402       .  A
C939        H944   1.084       .  S
C940        C941   1.417       .  A
C940        C958   1.484       .  S
C941        C942   1.417       .  A
C941        H945   1.083       .  S
C942        C943   1.403       .  A
C942       C1114   1.483       .  S
C943        H946   1.084       .  S
O947        V955   1.895       .  S
O947        C957   1.267       .  A
O948        V955   1.909       .  S
O948        C958   1.264       .  A
O949        V955   1.908       .  S
O949        C959   1.263       .  A
O950        V955   1.893       .  S
O950        C960   1.267       .  A
O951        V956   1.911       .  S
O951        C960   1.264       .  A
O952        V956   1.895       .  S
O952        C959   1.268       .  A
O953        V956   1.895       .  S
O953        C958   1.267       .  A
O954        V956   1.910       .  S
O954        C957   1.264       .  A
V955        V956   2.085       .  T
C960       C1011   1.484       .  S
C961        C962   1.393       .  A
C961        C966   1.390       .  A
C961       C1160   1.470       .  S
C962        C963   1.402       .  A
C962        H967   1.084       .  S
C963        C964   1.420       .  A
C963        C990   1.488       .  S
C964        C965   1.420       .  A
C964        H968   1.083       .  S
C965        C966   1.402       .  A
C965       C1115   1.486       .  S
C966        H969   1.084       .  S
C970        C975   1.393       .  A
C970       C1163   1.471       .  S
C971        C972   1.402       .  A
C971        H976   1.084       .  S
C972        C973   1.417       .  A
C972       C1003   1.486       .  S
C973        C974   1.418       .  A
C973        H977   1.083       .  S
C975        H978   1.084       .  S
O979        V987   1.915       .  S
O979        C989   1.266       .  A
O980        V987   1.900       .  S
O980        C990   1.269       .  A
O981        V987   1.895       .  S
O981        C991   1.267       .  A
O982        V987   1.910       .  S
O982        C992   1.263       .  A
O983        V988   1.894       .  S
O983        C992   1.268       .  A
O984        V988   1.909       .  S
O984        C991   1.264       .  A
O985        V988   1.910       .  S
O985        C990   1.263       .  A
O986        V988   1.894       .  S
O986        C989   1.267       .  A
V987        V988   2.085       .  T
C989       C2578   1.488       .  S
C992       C1018   1.485       .  S
O993       V1001   1.910       .  S
O993       C1003   1.264       .  A
O994       V1001   1.895       .  S
O994       C1004   1.267       .  A
O995       V1001   1.894       .  S
O995       C1005   1.267       .  A
O996       V1001   1.908       .  S
O996       C1006   1.263       .  A
O997       V1002   1.896       .  S
O997       C1006   1.268       .  A
O998       V1002   1.910       .  S
O998       C1005   1.264       .  A
O999       V1002   1.910       .  S
O999       C1004   1.264       .  A
O1000      V1002   1.896       .  S
O1000      C1003   1.267       .  A
V1001      V1002   2.085       .  T
C1004      C2571   1.486       .  S
C1007      C1008   1.393       .  A
C1007      C1426   1.391       .  A
C1007      C1146   1.473       .  S
C1008      C1009   1.403       .  A
C1008      H1013   1.084       .  S
C1009      C1010   1.417       .  A
C1009      C1088   1.485       .  S
C1010      C1425   1.417       .  A
C1010      H1014   1.083       .  S
C1011      C1424   1.418       .  A
C1011      C1012   1.403       .  A
C1012      C1421   1.391       .  A
C1012      H1015   1.084       .  S
C1016      C1431   1.391       .  A
C1016      C1021   1.394       .  A
C1016      C1149   1.473       .  S
C1017      C1430   1.390       .  A
C1017      C1018   1.402       .  A
C1017      H1022   1.084       .  S
C1018      C1433   1.419   1_554  A
C1019      C1432   1.418       .  A
C1019      C1020   1.419       .  A
C1019      H1023   1.083       .  S
C1020      C1021   1.404       .  A
C1020      C1056   1.489       .  S
C1021      H1024   1.084       .  S
C1025      C2682   1.391       .  A
C1025      C1030   1.392       .  A
C1025      C1135   1.471       .  S
C1026      C2681   1.391   1_455  A
C1026      C1027   1.403       .  A
C1026      H1031   1.084       .  S
C1027      C1028   1.420       .  A
C1027      C1099   1.489       .  S
C1028      C1029   1.421       .  A
C1028      H1032   1.083       .  S
C1029      C2686   1.405   1_455  A
C1030      C2685   1.405       .  A
C1030      H1033   1.084       .  S
C1034      C1035   1.392       .  A
C1034      C1039   1.393       .  A
C1034      C1132   1.472       .  S
C1035      C1036   1.404       .  A
C1035      H1040   1.084       .  S
C1036      C1037   1.415       .  A
C1036      C1113   1.483       .  S
C1037      C1038   1.415       .  A
C1037      H1041   1.083       .  S
C1038      C1039   1.404       .  A
C1038      C1054   1.483       .  S
C1039      H1042   1.084       .  S
O1043      V1051   1.906       .  S
O1043      C1053   1.263       .  A
O1044      V1051   1.893       .  S
O1044      C1054   1.266       .  A
O1045      V1051   1.898       .  S
O1045      C1055   1.268       .  A
O1046      V1051   1.912       .  S
O1046      C1056   1.265       .  A
O1047      V1052   1.899       .  S
O1047      C1056   1.268       .  A
O1048      V1052   1.912       .  S
O1048      C1055   1.264       .  A
O1049      V1052   1.910       .  S
O1049      C1054   1.265       .  A
O1050      V1052   1.898       .  S
O1050      C1053   1.268       .  A
V1051      V1052   2.085       .  T
C1057      C1058   1.394       .  A
C1057      C1062   1.394       .  A
C1057      C1118   1.476       .  S
C1058      C1059   1.405       .  A
C1058      H1063   1.084       .  S
C1060      C1061   1.417       .  A
C1060      H1064   1.083   1_545  S
C1061      C1102   1.486   1_545  S
C1062      H1065   1.084       .  S
C1066      C1067   1.395       .  A
C1066      C1071   1.392       .  A
C1066      C1121   1.476       .  S
C1067      C1068   1.405       .  A
C1067      H1072   1.084       .  S
C1068      C1069   1.418       .  A
C1068      C1086   1.488       .  S
C1069      C1070   1.418       .  A
C1069      H1073   1.083       .  S
C1070      C1071   1.403       .  A
C1070      C1116   1.485       .  S
C1071      H1074   1.084       .  S
O1075      V1083   1.896       .  S
O1075      C1085   1.268       .  A
O1076      V1083   1.912       .  S
O1076      C1086   1.265       .  A
O1077      V1083   1.913       .  S
O1077      C1087   1.265       .  A
O1078      V1083   1.896       .  S
O1078      C1088   1.267       .  A
O1079      V1084   1.909       .  S
O1079      C1088   1.264       .  A
O1080      V1084   1.897       .  S
O1080      C1087   1.268       .  A
O1081      V1084   1.897       .  S
O1081      C1086   1.267       .  A
O1082      V1084   1.909       .  S
O1082      C1085   1.264       .  A
V1083      V1084   2.085       .  T
O1089      V1097   1.913       .  S
O1089      C1099   1.264       .  A
O1090      V1097   1.897       .  S
O1090      C1100   1.268       .  A
O1091      V1097   1.897       .  S
O1091      C1101   1.268       .  A
O1092      V1097   1.911       .  S
O1092      C1102   1.265       .  A
O1093      V1098   1.896       .  S
O1093      C1102   1.267       .  A
O1094      V1098   1.909       .  S
O1094      C1101   1.264       .  A
O1095      V1098   1.910       .  S
O1095      C1100   1.264       .  A
O1096      V1098   1.897       .  S
O1096      C1099   1.268       .  A
V1097      V1098   2.085       .  T
O1103      V1111   1.894       .  S
O1103      C1113   1.267       .  A
O1104      V1111   1.908       .  S
O1104      C1114   1.264       .  A
O1105      V1111   1.910       .  S
O1105      C1115   1.264       .  A
O1106      V1111   1.895       .  S
O1106      C1116   1.267       .  A
O1107      V1112   1.910       .  S
O1107      C1116   1.264       .  A
O1108      V1112   1.896       .  S
O1108      C1115   1.268       .  A
O1109      V1112   1.894       .  S
O1109      C1114   1.267       .  A
O1110      V1112   1.908       .  S
O1110      C1113   1.264       .  A
V1111      V1112   2.085       .  T
C1117      C1118   1.402       .  A
C1117      C1122   1.402       .  A
C1117      H1124   1.084       .  S
C1118      C1119   1.410       .  A
C1119      C1120   1.402       .  A
C1119      N1126   1.438       .  S
C1120      C1121   1.403       .  A
C1120      H1125   1.084       .  S
C1121      C1122   1.410       .  A
C1122      N1123   1.438       .  S
N1123      H1127   1.046       .  S
N1123      H1128   1.046       .  S
N1126      H1129   1.046       .  S
N1126      H1130   1.046       .  S
C1131      C1132   1.402       .  A
C1131      C1136   1.403       .  A
C1131      H1138   1.084       .  S
C1132      C1133   1.409       .  A
C1133      C1134   1.401       .  A
C1133      N1140   1.438       .  S
C1134      C1135   1.401       .  A
C1134      H1139   1.084       .  S
C1135      C1136   1.409       .  A
C1136      N1137   1.438       .  S
N1137      H1141   1.046       .  S
N1137      H1142   1.046       .  S
N1140      H1143   1.046       .  S
N1140      H1144   1.046       .  S
C1145      C1560   1.403       .  A
C1145      C1150   1.402       .  A
C1145      H1152   1.084       .  S
C1146      C1559   1.403       .  A
C1146      C1147   1.409       .  A
C1147      C1148   1.400       .  A
C1147      N1154   1.438       .  S
C1148      C1149   1.402       .  A
C1148      H1153   1.084       .  S
C1149      C1564   1.411       .  A
C1150      C1563   1.411       .  A
C1150      N1151   1.439       .  S
N1151      H1155   1.046       .  S
N1151      H1156   1.046       .  S
N1154      H1157   1.046       .  S
N1154      H1158   1.046       .  S
C1159      C1160   1.403       .  A
C1159      C1164   1.397       .  A
C1159      H1166   1.085       .  S
C1160      C1161   1.414       .  A
C1161      C1162   1.394       .  A
C1161      N1168   1.439       .  S
C1162      C1163   1.402       .  A
C1162      H1167   1.085       .  S
C1163      C1164   1.416       .  A
C1164      N1165   1.439       .  S
N1165      H1169   1.046       .  S
N1168      H1171   1.043       .  S
N1168      H1172   1.046       .  S
C1173      C1174   1.401       .  A
C1173      C1178   1.398       .  A
C1173      H1180   1.084       .  S
C1174      C1175   1.407       .  A
C1175      C1176   1.398       .  A
C1175      N1182   1.433       .  S
C1176      C1177   1.402       .  A
C1176      H1181   1.084       .  S
C1177      C1178   1.407       .  A
C1178      N1179   1.433       .  S
N1179      H1183   1.046       .  S
N1179      H1184   1.045       .  S
N1182      H1185   1.046       .  S
N1182      H1186   1.046       .  S
C1187      C1602   1.401       .  A
C1187      C1192   1.401       .  A
C1187      H1194   1.084       .  S
C1188      C1601   1.401   1_556  A
C1188      C2845   1.409       .  A
C1189      C2844   1.409       .  A
C1189      C1190   1.402       .  A
C1189      N1196   1.438       .  S
C1190      C3261   1.402   1_556  A
C1190      H1195   1.084       .  S
C1191      C3260   1.402       .  A
C1191      C1192   1.409       .  A
C1192      N1193   1.438       .  S
N1193      H1611   1.046       .  S
N1193      H1612   1.046       .  S
N1196      H1613   1.046       .  S
N1196      H1614   1.046       .  S
H1197      N1607   1.046       .  S
H1198      N1607   1.046       .  S
H1199      N1610   1.046       .  S
H1200      N1610   1.046       .  S
C1201      C1202   1.401       .  A
C1201      C1206   1.397       .  A
C1201      H1208   1.084       .  S
C1202      C1617   1.414       .  A
C1203      C1616   1.414       .  A
C1203      C1204   1.398       .  A
C1204      C1619   1.402   1_554  A
C1205      C1618   1.402       .  A
C1205      C1206   1.415       .  A
C1206      N1207   1.440       .  S
N1207      H1211   1.046       .  S
N1207      H1212   1.043       .  S
N1210      H1213   1.043       .  S
N1210      H1214   1.046       .  S
C1215      C1216   1.402       .  A
C1215      C1220   1.403       .  A
C1215      H1222   1.084       .  S
C1216      C1217   1.409       .  A
C1217      C1218   1.401       .  A
C1217      N1224   1.438       .  S
C1218      C1219   1.401       .  A
C1218      H1223   1.084       .  S
C1219      C1220   1.410       .  A
C1220      N1221   1.438       .  S
N1221      H1225   1.046       .  S
N1221      H1226   1.046       .  S
N1224      H2883   1.046       .  S
N1224      H1228   1.046       .  S
H1227      N2880   1.046       .  S
C1229      C1230   1.401       .  A
C1229      C1234   1.400       .  A
C1229      H1236   1.084       .  S
C1230      C1231   1.409       .  A
C1231      C1232   1.400       .  A
C1231      N1238   1.438       .  S
C1232      C1233   1.401       .  A
C1232      H1237   1.084       .  S
C1233      C1234   1.409       .  A
C1234      N1235   1.438       .  S
N1235      H1239   1.046       .  S
N1235      H1240   1.046       .  S
N1238      H1241   1.046       .  S
N1238      H1242   1.046       .  S
C1243      C1244   1.391       .  A
C1243      C1248   1.390       .  A
C1243      C1647   1.468       .  S
C1244      C1245   1.403       .  A
C1244      H1249   1.084       .  S
C1245      C2902   1.418       .  A
C1245      C1306   1.485       .  S
C1246      C2901   1.418       .  A
C1246      C1247   1.418       .  A
C1246      H1250   1.083       .  S
C1247      C2904   1.402       .  A
C1247      C1405   1.484       .  S
C1248      C2903   1.402       .  A
C1248      H1251   1.084       .  S
C1252      C1644   1.468       .  S
C1253      C1254   1.402       .  A
C1254      C1255   1.419       .  A
C1254      C1290   1.486       .  S
C1255      C1256   1.419       .  A
C1255      H1259   1.083       .  S
C1256      C1257   1.403       .  A
C1256      C1373   1.485       .  S
C1257      H1260   1.084       .  S
C1261      C2918   1.393       .  A
C1261      C2922   1.392       .  A
C1261      C1630   1.472       .  S
C1262      C2917   1.393   1_455  A
C1262      C1263   1.405       .  A
C1262      H1267   1.084       .  S
C1263      C1264   1.418       .  A
C1263      C1501   1.489       .  S
C1264      C1265   1.419       .  A
C1264      H1268   1.083       .  S
C1265      C1266   1.404   1_455  A
C1265      C1305   1.487       .  S
C1266      C2917   1.392       .  A
C1266      H2925   1.084       .  S
H1269      C2922   1.084       .  S
C1270      C1271   1.392       .  A
C1270      C1275   1.392       .  A
C1270      C1633   1.472       .  S
C1271      H1276   1.084       .  S
C1272      C1273   1.420   1_545  A
C1272      C1469   1.489   1_545  S
C1273      H1277   1.083       .  S
C1274      C1275   1.405       .  A
C1274      C1289   1.490       .  S
C1275      H1278   1.084       .  S
O1279      V1287   1.913   1_565  S
O1280      C1290   1.268       .  A
O1281      C1291   1.267       .  A
O1282      V1287   1.911       .  S
O1283      V1288   1.896       .  S
O1283      C1292   1.267       .  A
O1284      V1288   1.908       .  S
O1284      C1291   1.264       .  A
O1285      V1288   1.911       .  S
O1285      C1290   1.264       .  A
O1286      V1288   1.897       .  S
O1286      C1289   1.268       .  A
C1291      C1388   1.484       .  S
C1292      C1473   1.486       .  S
O1293      V1301   1.895       .  S
O1293      C1303   1.267       .  A
O1294      V1301   1.912       .  S
O1294      C1304   1.264       .  A
O1295      V1301   1.911       .  S
O1295      C1305   1.264       .  A
O1296      V1301   1.895       .  S
O1296      C1306   1.267       .  A
O1297      V1302   1.910       .  S
O1297      C2962   1.264       .  A
O1298      V2958   1.897       .  S
O1298      C1305   1.268       .  A
O1299      V2958   1.898       .  S
O1299      C1304   1.268       .  A
O1300      V1302   1.913       .  S
O1300      C2959   1.264       .  A
V1301      V2958   2.085       .  T
V1302      O2954   1.897       .  S
V1302      O2955   1.898       .  S
V1302      V2957   2.085       .  T
C1303      C1347   1.487       .  S
C1303      O2956   1.264   1_455  A
C1304      C1443   1.490       .  S
C1306      O2953   1.264       .  A
C1307      C1308   1.392       .  A
C1307      C1619   1.468       .  S
C1308      C1309   1.404       .  A
C1310      C1311   1.416       .  A
C1310      H1314   1.083       .  S
C1311      C1312   1.403       .  A
C1311      C1419   1.484       .  S
C1312      H1315   1.084       .  S
C1316      C1317   1.391   1_554  A
C1316      C1616   1.468       .  S
C1317      C1318   1.403       .  A
C1318      C1319   1.419   1_556  A
C1319      H1323   1.083   1_554  S
C1320      C1321   1.404       .  A
C1320      C1371   1.486       .  S
C1321      H1324   1.084       .  S
C1325      C1330   1.391       .  A
C1325      C1602   1.470       .  S
C1326      C1327   1.404       .  A
C1326      H1331   1.084       .  S
C1327      C1499   1.485       .  S
C1328      C1329   1.418       .  A
C1328      H1332   1.083       .  S
C1329      C1330   1.403       .  A
C1329      C3074   1.485   1_455  S
C1330      H2989   1.084   1_455  S
H1333      C2986   1.084       .  S
C1334      C1339   1.393       .  A
C1334      C1605   1.472       .  S
C1335      C1336   1.405       .  A
C1335      H2996   1.084   1_455  S
C1336      C3059   1.488   1_455  S
C1337      C1338   1.418       .  A
C1337      H1341   1.083       .  S
C1338      C1339   1.404       .  A
C1338      C1515   1.486       .  S
C1339      H1342   1.084       .  S
H1340      C2991   1.084       .  S
C1343      C1344   1.390       .  A
C1343      C1348   1.391       .  A
C1343      C1588   1.467       .  S
C1344      C3001   1.403       .  A
C1344      H1349   1.084       .  S
C1345      C3000   1.402       .  A
C1345      C1346   1.419       .  A
C1345      C1420   1.485       .  S
C1346      C3003   1.418       .  A
C1346      H1350   1.083       .  S
C1347      C3002   1.418   1_455  A
C1347      C1348   1.403       .  A
C1348      H1351   1.084       .  S
C1352      C1353   1.392       .  A
C1352      C1357   1.392       .  A
C1352      C1591   1.468       .  S
C1353      C1354   1.402       .  A
C1353      H1358   1.084       .  S
C1354      C1355   1.417       .  A
C1354      C1372   1.484       .  S
C1355      C1356   1.417       .  A
C1355      H1359   1.083       .  S
C1356      C1357   1.403       .  A
C1356      C1528   1.484       .  S
C1357      H1360   1.084       .  S
O1361      V1369   1.895       .  S
O1361      C1371   1.267       .  A
O1362      V1369   1.909       .  S
O1362      C1372   1.264       .  A
O1363      V1369   1.907       .  S
O1363      C1373   1.263       .  A
O1364      V1369   1.892       .  S
O1364      C1374   1.267       .  A
O1365      V1370   1.911       .  S
O1365      C1374   1.264       .  A
O1366      V1370   1.896       .  S
O1366      C1373   1.268       .  A
O1367      V1370   1.895       .  S
O1367      C1372   1.267       .  A
O1368      V1370   1.911       .  S
O1368      C1371   1.264       .  A
V1369      V1370   2.085       .  T
C1374      C1425   1.484       .  S
C1375      C1376   1.392       .  A
C1375      C1380   1.390       .  A
C1375      C1574   1.468       .  S
C1376      C1377   1.403       .  A
C1376      H1381   1.084       .  S
C1377      C1378   1.419       .  A
C1377      C1404   1.487       .  S
C1378      C1379   1.419       .  A
C1378      H1382   1.083       .  S
C1379      C1380   1.403       .  A
C1379      C1529   1.486       .  S
C1380      H1383   1.084       .  S
C1384      C1389   1.392       .  A
C1384      C1577   1.469       .  S
C1385      C1386   1.403       .  A
C1385      H1390   1.084       .  S
C1386      C1387   1.417       .  A
C1386      C1417   1.485       .  S
C1387      C1388   1.417       .  A
C1387      H1391   1.083       .  S
C1389      H1392   1.084       .  S
O1393      V1401   1.915       .  S
O1393      C1403   1.265       .  A
O1394      V1401   1.899       .  S
O1394      C1404   1.268       .  A
O1395      V1401   1.894       .  S
O1395      C1405   1.267       .  A
O1396      V1401   1.911       .  S
O1396      C1406   1.264       .  A
O1397      V1402   1.893       .  S
O1397      C1406   1.267       .  A
O1398      V1402   1.908       .  S
O1398      C1405   1.263       .  A
O1399      V1402   1.910       .  S
O1399      C1404   1.264       .  A
O1400      V1402   1.896       .  S
O1400      C1403   1.267       .  A
V1401      V1402   2.085       .  T
C1403      C2992   1.489       .  S
C1406      C1432   1.486       .  S
O1407      V1415   1.910       .  S
O1407      C1417   1.264       .  A
O1408      V1415   1.895       .  S
O1408      C1418   1.268       .  A
O1409      V1415   1.893       .  S
O1409      C1419   1.267       .  A
O1410      V1415   1.908       .  S
O1410      C1420   1.263       .  A
O1411      V1416   1.896       .  S
O1411      C1420   1.268       .  A
O1412      V1416   1.909       .  S
O1412      C1419   1.264       .  A
O1413      V1416   1.910       .  S
O1413      C1418   1.264       .  A
O1414      V1416   1.894       .  S
O1414      C1417   1.267       .  A
V1415      V1416   2.085       .  T
C1418      C2985   1.486       .  S
C1421      C1422   1.393   1_554  A
C1421      C1560   1.471       .  S
C1422      C1423   1.403       .  A
C1422      H1427   1.084       .  S
C1423      C1424   1.418   1_556  A
C1423      C1502   1.486       .  S
C1424      H1428   1.083   1_554  S
C1425      C1426   1.403       .  A
C1426      H1429   1.084       .  S
C1430      C1435   1.394   1_554  A
C1430      C1563   1.471       .  S
C1431      C1432   1.403       .  A
C1431      H1436   1.084       .  S
C1433      C1434   1.420       .  A
C1433      H1437   1.083       .  S
C1434      C1435   1.404       .  A
C1434      C1470   1.489       .  S
C1435      H1438   1.084       .  S
C1439      C3096   1.391       .  A
C1439      C1444   1.392       .  A
C1439      C1549   1.471       .  S
C1440      C3095   1.391   1_455  A
C1440      C1441   1.403       .  A
C1440      H1445   1.084       .  S
C1441      C1442   1.420       .  A
C1441      C1513   1.489       .  S
C1442      C1443   1.421       .  A
C1442      H1446   1.083       .  S
C1443      C3100   1.405   1_455  A
C1444      C3099   1.405       .  A
C1444      H1447   1.084       .  S
C1448      C1449   1.393       .  A
C1448      C1453   1.393       .  A
C1448      C1546   1.472       .  S
C1449      C1450   1.404       .  A
C1449      H1454   1.084       .  S
C1450      C1451   1.415       .  A
C1450      C1527   1.483       .  S
C1451      C1452   1.415       .  A
C1451      H1455   1.083       .  S
C1452      C1453   1.404       .  A
C1452      C1468   1.483       .  S
C1453      H1456   1.084       .  S
O1457      V1465   1.906       .  S
O1457      C1467   1.263       .  A
O1458      V1465   1.894       .  S
O1458      C1468   1.266       .  A
O1459      V1465   1.898       .  S
O1459      C1469   1.268       .  A
O1460      V1465   1.912       .  S
O1460      C1470   1.264       .  A
O1461      V1466   1.900       .  S
O1461      C1470   1.268       .  A
O1462      V1466   1.913       .  S
O1462      C1469   1.265       .  A
O1463      V1466   1.910       .  S
O1463      C1468   1.265       .  A
O1464      V1466   1.898       .  S
O1464      C1467   1.267       .  A
V1465      V1466   2.085       .  T
C1471      C1472   1.394       .  A
C1471      C1476   1.394       .  A
C1471      C1532   1.476       .  S
C1472      C1473   1.404       .  A
C1472      H1477   1.084       .  S
C1474      C1475   1.417       .  A
C1474      H1478   1.083   1_545  S
C1475      C1516   1.487   1_545  S
C1476      H1479   1.084       .  S
C1480      C1481   1.394       .  A
C1480      C1485   1.392       .  A
C1480      C1535   1.476       .  S
C1481      C1482   1.405       .  A
C1481      H1486   1.084       .  S
C1482      C1483   1.418       .  A
C1482      C1500   1.488       .  S
C1483      C1484   1.418       .  A
C1483      H1487   1.083       .  S
C1484      C1485   1.403       .  A
C1484      C1530   1.485       .  S
C1485      H1488   1.084       .  S
O1489      V1497   1.896       .  S
O1489      C1499   1.267       .  A
O1490      V1497   1.912       .  S
O1490      C1500   1.265       .  A
O1491      V1497   1.914       .  S
O1491      C1501   1.265       .  A
O1492      V1497   1.896       .  S
O1492      C1502   1.268       .  A
O1493      V1498   1.910       .  S
O1493      C1502   1.264       .  A
O1494      V1498   1.897       .  S
O1494      C1501   1.268       .  A
O1495      V1498   1.897       .  S
O1495      C1500   1.268       .  A
O1496      V1498   1.909       .  S
O1496      C1499   1.264       .  A
V1497      V1498   2.085       .  T
O1503      V1511   1.913       .  S
O1503      C1513   1.264       .  A
O1504      V1511   1.896       .  S
O1504      C1514   1.268       .  A
O1505      V1511   1.897       .  S
O1505      C1515   1.268       .  A
O1506      V1511   1.911       .  S
O1506      C1516   1.265       .  A
O1507      V1512   1.897       .  S
O1507      C1516   1.267       .  A
O1508      V1512   1.910       .  S
O1508      C1515   1.264       .  A
O1509      V1512   1.910       .  S
O1509      C1514   1.264       .  A
O1510      V1512   1.897       .  S
O1510      C1513   1.268       .  A
V1511      V1512   2.085       .  T
O1517      V1525   1.894       .  S
O1517      C1527   1.266       .  A
O1518      V1525   1.908       .  S
O1518      C1528   1.264       .  A
O1519      V1525   1.910       .  S
O1519      C1529   1.264       .  A
O1520      V1525   1.895       .  S
O1520      C1530   1.268       .  A
O1521      V1526   1.909       .  S
O1521      C1530   1.264       .  A
O1522      V1526   1.896       .  S
O1522      C1529   1.268       .  A
O1523      V1526   1.896       .  S
O1523      C1528   1.267       .  A
O1524      V1526   1.909       .  S
O1524      C1527   1.264       .  A
V1525      V1526   2.085       .  T
C1531      C1532   1.402       .  A
C1531      C1536   1.402       .  A
C1531      H1538   1.084       .  S
C1532      C1533   1.410       .  A
C1533      C1534   1.402       .  A
C1533      N1540   1.438       .  S
C1534      C1535   1.403       .  A
C1534      H1539   1.084       .  S
C1535      C1536   1.410       .  A
C1536      N1537   1.438       .  S
N1537      H1541   1.046       .  S
N1537      H1542   1.046       .  S
N1540      H1543   1.045       .  S
N1540      H1544   1.046       .  S
C1545      C1546   1.402       .  A
C1545      C1550   1.403       .  A
C1545      H1552   1.084       .  S
C1546      C1547   1.409       .  A
C1547      C1548   1.401       .  A
C1547      N1554   1.438       .  S
C1548      C1549   1.401       .  A
C1548      H1553   1.084       .  S
C1549      C1550   1.409       .  A
C1550      N1551   1.438       .  S
N1551      H1555   1.046       .  S
N1551      H1556   1.046       .  S
N1554      H1557   1.046       .  S
N1554      H1558   1.046       .  S
C1559      C1564   1.402       .  A
C1559      H1566   1.084       .  S
C1560      C1561   1.409   1_554  A
C1561      C1562   1.399       .  A
C1561      N1568   1.438       .  S
C1562      C1563   1.401   1_556  A
C1562      H1567   1.084       .  S
C1564      N1565   1.439       .  S
N1565      H1569   1.046       .  S
N1565      H1570   1.046       .  S
N1568      H1571   1.046       .  S
N1568      H1572   1.046       .  S
C1573      C1574   1.402       .  A
C1573      C1578   1.397       .  A
C1573      H1580   1.084       .  S
C1574      C1575   1.414       .  A
C1575      C1576   1.395       .  A
C1575      N1582   1.439       .  S
C1576      C1577   1.402       .  A
C1576      H1581   1.084       .  S
C1577      C1578   1.415       .  A
C1578      N1579   1.439       .  S
N1579      H1583   1.045       .  S
N1582      H1585   1.043       .  S
N1582      H1586   1.045       .  S
C1587      C1588   1.401       .  A
C1587      C1592   1.398       .  A
C1587      H1594   1.084       .  S
C1588      C1589   1.407       .  A
C1589      C1590   1.399       .  A
C1589      N1596   1.433       .  S
C1590      C1591   1.402       .  A
C1590      H1595   1.084       .  S
C1591      C1592   1.408       .  A
C1592      N1593   1.433       .  S
N1593      H1597   1.046       .  S
N1593      H1598   1.046       .  S
N1596      H1599   1.045       .  S
N1596      H1600   1.046       .  S
C1601      C1606   1.402       .  A
C1601      H1608   1.084       .  S
C1602      C3259   1.409       .  A
C1603      C3258   1.409       .  A
C1603      C1604   1.402       .  A
C1603      N1610   1.438       .  S
C1604      C2847   1.402       .  A
C1604      H1609   1.084       .  S
C1605      C2846   1.402       .  A
C1605      C1606   1.409   1_556  A
C1606      N1607   1.438       .  S
C1615      C1616   1.401   1_556  A
C1615      C1620   1.397       .  A
C1615      H1622   1.084       .  S
C1617      C1618   1.398       .  A
C1619      C1620   1.415       .  A
C1620      N1621   1.440       .  S
N1621      H1625   1.046       .  S
N1621      H1626   1.043       .  S
N1624      H1627   1.043       .  S
N1624      H1628   1.046       .  S
C1629      C1630   1.402       .  A
C1629      C1634   1.404       .  A
C1629      H1636   1.084       .  S
C1630      C1631   1.409       .  A
C1631      C1632   1.401       .  A
C1631      N1638   1.438       .  S
C1632      C1633   1.401       .  A
C1632      H1637   1.084       .  S
C1633      C1634   1.410       .  A
C1634      N1635   1.438       .  S
N1635      H1639   1.046       .  S
N1635      H1640   1.046       .  S
N1638      H3297   1.046       .  S
N1638      H1642   1.046       .  S
H1641      N3294   1.046       .  S
C1643      C1644   1.401       .  A
C1643      C1648   1.399       .  A
C1643      H1650   1.084       .  S
C1644      C1645   1.409       .  A
C1645      C1646   1.400       .  A
C1645      N1652   1.438       .  S
C1646      C1647   1.401       .  A
C1646      H1651   1.084       .  S
C1647      C1648   1.409       .  A
C1648      N1649   1.438       .  S
N1649      H1653   1.046       .  S
N1649      H1654   1.046       .  S
N1652      H1655   1.046       .  S
N1652      H1656   1.046       .  S
C1657      C1658   1.391       .  A
C1657      C1662   1.392       .  A
C1657      C2061   1.469       .  S
C1658      C1659   1.403       .  A
C1658      H1663   1.084       .  S
C1659      C1720   1.485       .  S
C1660      C1661   1.418       .  A
C1660      H1664   1.083   1_455  S
C1661      C1819   1.485   1_455  S
C1662      H1665   1.084       .  S
C1666      C2495   1.390       .  A
C1666      C2499   1.391       .  A
C1666      C2058   1.468       .  S
C1667      C2494   1.390       .  A
C1667      C1668   1.402   1_565  A
C1667      H2500   1.084       .  S
C1668      C1669   1.418       .  A
C1668      C1704   1.486       .  S
C1669      C1670   1.419       .  A
C1669      H1673   1.083       .  S
C1670      C1671   1.403       .  A
C1670      C1787   1.485       .  S
C1671      C2494   1.391   1_545  A
C1671      H1674   1.084       .  S
H1672      C2495   1.084       .  S
C1675      C2044   1.472       .  S
C1676      C1677   1.404       .  A
C1676      H1681   1.084       .  S
C1677      C1678   1.418       .  A
C1677      C1915   1.489       .  S
C1678      C1679   1.419       .  A
C1678      H1682   1.083       .  S
C1679      C1680   1.405       .  A
C1679      C1719   1.488       .  S
C1684      C1685   1.392       .  A
C1684      C1689   1.392       .  A
C1684      C2047   1.471       .  S
C1685      C2514   1.404       .  A
C1685      H1690   1.084       .  S
C1686      C2513   1.404       .  A
C1686      C1687   1.420       .  A
C1686      C1883   1.489       .  S
C1687      C2516   1.420       .  A
C1687      H1691   1.083       .  S
C1688      C2515   1.420   1_545  A
C1688      C1689   1.404       .  A
C1688      C1703   1.489       .  S
C1689      H1692   1.084       .  S
O1693      V1701   1.913       .  S
O1693      C2531   1.264       .  A
O1694      V2529   1.895       .  S
O1694      C1704   1.268       .  A
O1695      V2529   1.897       .  S
O1695      C1705   1.268       .  A
O1696      V1701   1.911       .  S
O1696      C2534   1.265       .  A
O1697      V1702   1.895       .  S
O1697      C1706   1.267       .  A
O1698      V1702   1.908       .  S
O1698      C1705   1.264       .  A
O1699      V1702   1.911       .  S
O1699      C1704   1.264       .  A
O1700      V1702   1.897       .  S
O1700      C1703   1.268       .  A
V1701      O2522   1.895       .  S
V1701      O2523   1.897       .  S
V1701      V2530   2.085       .  T
V1702      V2529   2.085       .  T
C1703      O2521   1.264   1_545  A
C1705      C1802   1.484       .  S
C1706      C1887   1.486       .  S
C1706      O2524   1.265       .  A
O1707      V1715   1.895       .  S
O1707      C1717   1.267       .  A
O1708      V1715   1.912       .  S
O1708      C1718   1.264       .  A
O1709      V1715   1.911       .  S
O1709      C1719   1.265       .  A
O1710      V1715   1.896       .  S
O1710      C1720   1.267       .  A
O1711      V1716   1.910       .  S
O1712      C1719   1.268       .  A
O1713      C1718   1.268       .  A
O1714      V1716   1.912   1_655  S
C1717      C1761   1.486       .  S
C1718      C1857   1.489       .  S
C1721      C1722   1.392       .  A
C1721      C2140   1.392       .  A
C1721      C2033   1.468       .  S
C1722      C1723   1.404       .  A
C1722      H2555   1.084   1_545  S
C1723      C2138   1.417       .  A
C1723      C2709   1.484   1_545  S
C1724      C2137   1.417       .  A
C1724      C1725   1.416   1_556  A
C1724      H1728   1.083       .  S
C1725      C1726   1.403       .  A
C1725      C1833   1.485       .  S
C1726      C2135   1.391   1_554  A
C1726      H1729   1.084       .  S
H1727      C2550   1.084       .  S
C1730      C1731   1.391       .  A
C1730      C2149   1.391       .  A
C1730      C2030   1.468       .  S
C1731      C1732   1.403       .  A
C1731      H2564   1.084   1_545  S
C1732      C1733   1.419       .  A
C1732      C2756   1.486   1_545  S
C1733      C2148   1.418       .  A
C1733      H1737   1.083       .  S
C1734      C2147   1.418       .  A
C1734      C1735   1.404       .  A
C1734      C1785   1.485       .  S
C1735      C2144   1.391       .  A
C1735      H1738   1.084       .  S
H1736      C2559   1.084       .  S
C1739      C2154   1.392       .  A
C1739      C1744   1.392   1_556  A
C1739      C2016   1.471       .  S
C1740      C2153   1.391       .  A
C1740      C1741   1.403       .  A
C1740      H1745   1.084       .  S
C1741      C2156   1.418       .  A
C1741      C1913   1.485       .  S
C1742      C2155   1.418       .  A
C1742      C1743   1.418   1_556  A
C1742      H1746   1.083       .  S
C1743      C1744   1.404       .  A
C1748      C2163   1.392       .  A
C1748      C1753   1.392       .  A
C1748      C2019   1.470       .  S
C1749      C2162   1.392   1_554  A
C1749      C1750   1.405       .  A
C1750      C2165   1.418   1_554  A
C1751      C2164   1.418       .  A
C1751      C1752   1.419       .  A
C1751      H1755   1.083       .  S
C1752      C1753   1.403       .  A
C1752      C1929   1.486       .  S
C1753      H1756   1.084       .  S
C1757      C1758   1.391       .  A
C1757      C1762   1.391       .  A
C1757      C2002   1.467       .  S
C1758      H1763   1.084       .  S
C1759      C1760   1.419   1_455  A
C1759      C1834   1.485   1_455  S
C1760      H1764   1.083       .  S
C1761      C1762   1.402       .  A
C1762      H1765   1.084       .  S
C1766      C1767   1.391       .  A
C1766      C1771   1.391       .  A
C1766      C2005   1.468       .  S
C1767      C1768   1.402       .  A
C1767      H1772   1.084       .  S
C1768      C1769   1.417       .  A
C1768      C1786   1.484       .  S
C1769      C1770   1.417       .  A
C1769      H1773   1.083       .  S
C1770      C1771   1.403       .  A
C1770      C1942   1.483       .  S
C1771      H1774   1.084       .  S
O1775      V1783   1.895       .  S
O1775      C1785   1.267       .  A
O1776      V1783   1.909       .  S
O1776      C1786   1.264       .  A
O1777      V1783   1.908       .  S
O1777      C1787   1.263       .  A
O1778      V1783   1.893       .  S
O1778      C1788   1.267       .  A
O1779      V1784   1.910       .  S
O1779      C1788   1.264       .  A
O1780      V1784   1.895       .  S
O1780      C1787   1.268       .  A
O1781      V1784   1.894       .  S
O1781      C1786   1.267       .  A
O1782      V1784   1.910       .  S
O1782      C1785   1.264       .  A
V1783      V1784   2.085       .  T
C1788      C1839   1.484       .  S
C1789      C1790   1.393       .  A
C1789      C1794   1.391       .  A
C1789      C1988   1.470       .  S
C1790      C1791   1.402       .  A
C1790      H1795   1.084       .  S
C1791      C1792   1.420       .  A
C1791      C1818   1.487       .  S
C1792      C1793   1.419       .  A
C1792      H1796   1.083       .  S
C1793      C1794   1.402       .  A
C1793      C1943   1.486       .  S
C1794      H1797   1.084       .  S
C1798      C2627   1.393       .  A
C1798      C1803   1.393       .  A
C1798      C1991   1.471       .  S
C1799      C2626   1.393   1_545  A
C1799      C1800   1.402       .  A
C1799      H1804   1.084       .  S
C1800      C1801   1.417       .  A
C1800      C1831   1.485       .  S
C1801      C1802   1.417       .  A
C1801      H1805   1.083       .  S
C1802      C2631   1.403   1_545  A
C1803      C2630   1.403       .  A
C1803      H1806   1.084       .  S
O1807      V1815   1.915       .  S
O1807      C1817   1.266       .  A
O1808      V1815   1.900       .  S
O1808      C1818   1.269       .  A
O1809      V1815   1.895       .  S
O1809      C1819   1.267       .  A
O1810      V1815   1.911       .  S
O1810      C1820   1.264       .  A
O1811      V1816   1.894       .  S
O1811      C1820   1.268       .  A
O1812      V1816   1.909       .  S
O1812      C1819   1.264       .  A
O1813      V1816   1.909       .  S
O1813      C1818   1.263       .  A
O1814      V1816   1.894       .  S
O1814      C1817   1.267       .  A
V1815      V1816   2.085       .  T
C1820      C1846   1.486       .  S
O1821      V1829   1.909       .  S
O1821      C1831   1.264       .  A
O1822      V1829   1.895       .  S
O1822      C1832   1.267       .  A
O1823      V1829   1.894       .  S
O1823      C1833   1.267       .  A
O1824      V1829   1.908       .  S
O1824      C1834   1.263       .  A
O1825      V1830   1.896       .  S
O1825      C1834   1.268       .  A
O1826      V1830   1.910       .  S
O1826      C1833   1.264       .  A
O1827      V1830   1.910       .  S
O1827      C1832   1.264       .  A
O1828      V1830   1.896       .  S
O1828      C1831   1.267       .  A
V1829      V1830   2.085       .  T
C1835      C1836   1.393       .  A
C1835      C2254   1.391       .  A
C1835      C1974   1.473       .  S
C1836      C1837   1.403       .  A
C1836      H1841   1.084       .  S
C1837      C1838   1.417       .  A
C1837      C1916   1.484       .  S
C1838      C2253   1.417       .  A
C1838      H1842   1.083       .  S
C1839      C2252   1.417   1_554  A
C1839      C1840   1.403       .  A
C1840      C2249   1.391       .  A
C1840      H1843   1.084       .  S
C1844      C2259   1.391       .  A
C1844      C1849   1.394       .  A
C1844      C1977   1.473       .  S
C1845      C2258   1.390       .  A
C1845      C1846   1.402       .  A
C1845      H1850   1.084       .  S
C1846      C2261   1.419   1_554  A
C1847      C2260   1.419       .  A
C1847      C1848   1.420       .  A
C1847      H1851   1.083       .  S
C1848      C1849   1.404       .  A
C1848      C1884   1.489       .  S
C1849      H1852   1.084       .  S
C1853      C1858   1.392       .  A
C1853      C1963   1.472       .  S
C1854      C1855   1.403       .  A
C1854      H1859   1.084       .  S
C1855      C1856   1.420       .  A
C1855      C1927   1.489       .  S
C1856      C1857   1.421       .  A
C1856      H1860   1.083       .  S
C1858      H1861   1.084       .  S
C1862      C1863   1.393       .  A
C1862      C1867   1.393       .  A
C1862      C1960   1.472       .  S
C1863      C1864   1.404       .  A
C1863      H1868   1.084       .  S
C1864      C1865   1.416       .  A
C1864      C1941   1.483       .  S
C1865      C1866   1.416       .  A
C1865      H1869   1.083       .  S
C1866      C1867   1.404       .  A
C1866      C1882   1.484       .  S
C1867      H1870   1.084       .  S
O1871      V1879   1.906       .  S
O1871      C1881   1.263       .  A
O1872      V1879   1.894       .  S
O1872      C1882   1.266       .  A
O1873      V1879   1.898       .  S
O1873      C1883   1.268       .  A
O1874      V1879   1.912       .  S
O1874      C1884   1.264       .  A
O1875      V1880   1.899       .  S
O1875      C1884   1.268       .  A
O1876      V1880   1.912       .  S
O1876      C1883   1.264       .  A
O1877      V1880   1.910       .  S
O1877      C1882   1.265       .  A
O1878      V1880   1.898       .  S
O1878      C1881   1.268       .  A
V1879      V1880   2.085       .  T
C1881      C2551   1.484       .  S
C1885      C1886   1.395       .  A
C1885      C1890   1.394       .  A
C1885      C1946   1.477       .  S
C1886      C1887   1.405       .  A
C1886      H1891   1.084       .  S
C1887      C2716   1.417       .  A
C1888      C2715   1.417       .  A
C1888      C1889   1.416       .  A
C1888      H1892   1.083       .  S
C1889      C2718   1.405       .  A
C1889      C1930   1.486       .  S
C1890      C2717   1.405       .  A
C1890      H1893   1.084       .  S
C1894      C1895   1.395       .  A
C1894      C1899   1.393       .  A
C1894      C1949   1.477       .  S
C1895      C1896   1.405       .  A
C1895      H1900   1.084       .  S
C1896      C1897   1.417       .  A
C1896      C1914   1.488       .  S
C1897      C1898   1.418       .  A
C1897      H1901   1.083       .  S
C1898      C1899   1.404       .  A
C1898      C1944   1.485       .  S
C1899      H1902   1.084       .  S
O1903      V1911   1.896       .  S
O1903      C1913   1.268       .  A
O1904      V1911   1.912       .  S
O1904      C1914   1.265       .  A
O1905      V1911   1.913       .  S
O1905      C1915   1.265       .  A
O1906      V1911   1.896       .  S
O1906      C1916   1.267       .  A
O1907      V1912   1.909       .  S
O1907      C1916   1.264       .  A
O1908      V1912   1.897       .  S
O1908      C1915   1.268       .  A
O1909      V1912   1.896       .  S
O1909      C1914   1.267       .  A
O1910      V1912   1.909       .  S
O1910      C1913   1.264       .  A
V1911      V1912   2.085       .  T
O1917      V1925   1.913       .  S
O1917      C1927   1.264       .  A
O1918      V1925   1.897       .  S
O1918      C1928   1.268       .  A
O1919      V1925   1.898       .  S
O1919      C1929   1.268       .  A
O1920      V1925   1.911       .  S
O1920      C1930   1.265       .  A
O1921      V1926   1.896       .  S
O1921      C1930   1.267       .  A
O1922      V1926   1.909       .  S
O1922      C1929   1.264       .  A
O1923      V1926   1.910       .  S
O1923      C1928   1.264       .  A
O1924      V1926   1.897       .  S
O1924      C1927   1.268       .  A
V1925      V1926   2.085       .  T
C1928      C2560   1.486       .  S
O1931      V1939   1.894       .  S
O1931      C1941   1.267       .  A
O1932      V1939   1.908       .  S
O1932      C1942   1.264       .  A
O1933      V1939   1.909       .  S
O1933      C1943   1.264       .  A
O1934      V1939   1.895       .  S
O1934      C1944   1.267       .  A
O1935      V1940   1.909       .  S
O1935      C1944   1.264       .  A
O1936      V1940   1.895       .  S
O1936      C1943   1.268       .  A
O1937      V1940   1.894       .  S
O1937      C1942   1.267       .  A
O1938      V1940   1.909       .  S
O1938      C1941   1.264       .  A
V1939      V1940   2.085       .  T
C1945      C1946   1.403       .  A
C1945      C1950   1.402       .  A
C1945      H1952   1.084       .  S
C1946      C1947   1.410       .  A
C1947      C1948   1.403       .  A
C1947      N1954   1.438       .  S
C1948      C1949   1.403       .  A
C1948      H1953   1.084       .  S
C1949      C1950   1.411       .  A
C1950      N1951   1.438       .  S
N1951      H1955   1.046       .  S
N1951      H1956   1.046       .  S
N1954      H1957   1.046       .  S
N1954      H1958   1.046       .  S
C1959      C1960   1.402       .  A
C1959      C1964   1.403       .  A
C1959      H1966   1.084       .  S
C1960      C1961   1.409       .  A
C1961      C1962   1.401       .  A
C1961      N1968   1.438       .  S
C1962      C1963   1.401       .  A
C1962      H1967   1.084       .  S
C1963      C1964   1.409       .  A
C1964      N1965   1.438       .  S
N1965      H1969   1.046       .  S
N1965      H1970   1.046       .  S
N1968      H1971   1.046       .  S
N1968      H1972   1.046       .  S
C1973      C2388   1.403       .  A
C1973      C1978   1.402       .  A
C1973      H1980   1.084       .  S
C1974      C2387   1.403       .  A
C1974      C1975   1.409       .  A
C1975      C1976   1.399       .  A
C1975      N1982   1.438       .  S
C1976      C1977   1.402       .  A
C1976      H1981   1.084       .  S
C1977      C2392   1.411       .  A
C1978      C2391   1.411       .  A
C1978      N1979   1.439       .  S
N1979      H1983   1.046       .  S
N1979      H1984   1.046       .  S
N1982      H1985   1.046       .  S
N1982      H1986   1.046       .  S
C1987      C1988   1.403       .  A
C1987      C1992   1.397       .  A
C1987      H1994   1.085       .  S
C1988      C1989   1.414       .  A
C1989      C1990   1.394       .  A
C1989      N1996   1.439       .  S
C1990      C1991   1.402       .  A
C1990      H1995   1.084       .  S
C1991      C1992   1.416       .  A
C1992      N1993   1.439       .  S
N1993      H1997   1.046       .  S
N1993      H2826   1.043       .  S
N1996      H1999   1.043       .  S
N1996      H2000   1.046       .  S
H1998      N2821   1.043       .  S
C2001      C2002   1.401       .  A
C2001      C2006   1.397       .  A
C2001      H2008   1.084       .  S
C2002      C2003   1.407       .  A
C2003      C2004   1.399       .  A
C2003      N2010   1.433       .  S
C2004      C2005   1.402       .  A
C2004      H2009   1.084       .  S
C2005      C2006   1.407       .  A
C2006      N2007   1.433       .  S
N2007      H2011   1.046       .  S
N2007      H2012   1.045       .  S
N2010      H2013   1.046       .  S
N2010      H2014   1.046       .  S
C2015      C2430   1.401       .  A
C2015      C2020   1.401       .  A
C2015      H2022   1.084       .  S
C2016      C2429   1.401   1_556  A
C2017      C2018   1.403       .  A
C2017      N2024   1.438   1_455  S
C2018      H2023   1.084   1_455  S
C2019      C2020   1.409       .  A
C2020      N2021   1.438       .  S
N2021      H2439   1.046       .  S
N2021      H2440   1.046       .  S
N2024      H2441   1.046       .  S
N2024      H2442   1.046       .  S
H2025      N2435   1.046       .  S
H2026      N2435   1.046       .  S
H2027      N2438   1.046       .  S
H2028      N2438   1.046       .  S
C2029      C2030   1.401       .  A
C2029      C2034   1.397       .  A
C2029      H2036   1.084       .  S
C2030      C2445   1.414       .  A
C2031      C2444   1.414       .  A
C2031      C2032   1.398       .  A
C2031      N2866   1.440   1_545  S
C2032      C2447   1.402   1_554  A
C2032      H2865   1.084   1_545  S
C2033      C2446   1.402       .  A
C2033      C2034   1.415       .  A
C2034      N2035   1.440       .  S
N2035      H2039   1.046       .  S
N2035      H2040   1.043       .  S
H2037      C2860   1.084       .  S
N2038      C2859   1.440       .  S
N2038      H2041   1.043       .  S
N2038      H2042   1.046       .  S
C2043      C2044   1.402       .  A
C2043      C2048   1.403       .  A
C2043      H2050   1.084       .  S
C2044      C2045   1.409       .  A
C2045      C2046   1.401       .  A
C2045      N2052   1.438       .  S
C2046      C2047   1.401       .  A
C2046      H2051   1.084       .  S
C2047      C2048   1.410       .  A
C2048      N2049   1.438       .  S
N2049      H2053   1.046       .  S
N2049      H2054   1.046       .  S
N2052      H2056   1.046       .  S
C2057      C2058   1.401       .  A
C2057      C2062   1.400       .  A
C2057      H2064   1.084       .  S
C2058      C2059   1.409       .  A
C2059      C2060   1.400       .  A
C2059      N2066   1.438       .  S
C2060      C2061   1.401       .  A
C2060      H2065   1.084       .  S
C2061      C2062   1.409       .  A
C2062      N2063   1.438       .  S
N2063      H2067   1.046       .  S
N2063      H2068   1.046       .  S
N2066      H2069   1.046       .  S
N2066      H2070   1.046       .  S
C2071      C2072   1.391       .  A
C2071      C2076   1.390       .  A
C2071      C2475   1.468       .  S
C2072      C2073   1.403       .  A
C2072      H2077   1.084       .  S
C2073      C2134   1.485       .  S
C2074      C2075   1.418       .  A
C2074      H2078   1.083   1_455  S
C2075      C2233   1.484   1_455  S
C2076      H2079   1.084       .  S
C2080      C2909   1.391       .  A
C2080      C2913   1.391       .  A
C2080      C2472   1.468       .  S
C2081      C2908   1.391       .  A
C2081      C2082   1.402   1_565  A
C2081      H2914   1.084       .  S
C2082      C2083   1.419       .  A
C2082      C2118   1.487       .  S
C2083      C2084   1.419       .  A
C2083      H2087   1.083       .  S
C2084      C2085   1.403       .  A
C2084      C2201   1.485       .  S
C2085      C2908   1.391   1_545  A
C2085      H2088   1.084       .  S
H2086      C2909   1.084       .  S
C2089      C2458   1.473       .  S
C2090      C2091   1.405       .  A
C2090      H2095   1.084       .  S
C2091      C2092   1.418       .  A
C2091      C2329   1.489       .  S
C2092      C2093   1.419       .  A
C2092      H2096   1.083       .  S
C2093      C2094   1.404       .  A
C2093      C2133   1.487       .  S
C2098      C2099   1.392       .  A
C2098      C2103   1.392       .  A
C2098      C2461   1.472       .  S
C2099      C2928   1.404       .  A
C2099      H2104   1.084       .  S
C2100      C2927   1.404       .  A
C2100      C2101   1.421       .  A
C2100      C2297   1.490       .  S
C2101      C2930   1.421       .  A
C2101      H2105   1.083       .  S
C2102      C2929   1.421   1_545  A
C2102      C2103   1.405       .  A
C2102      C2117   1.490       .  S
C2103      H2106   1.084       .  S
O2107      V2115   1.913       .  S
O2107      C2945   1.265       .  A
O2108      V2943   1.896       .  S
O2108      C2118   1.268       .  A
O2109      V2943   1.897       .  S
O2109      C2119   1.267       .  A
O2110      V2115   1.911       .  S
O2110      C2948   1.265       .  A
O2111      V2116   1.895       .  S
O2111      C2120   1.267       .  A
O2112      V2116   1.907       .  S
O2112      C2119   1.264       .  A
O2113      V2116   1.912       .  S
O2113      C2118   1.264       .  A
O2114      V2116   1.898       .  S
O2114      C2117   1.268       .  A
V2115      O2936   1.896       .  S
V2115      O2937   1.897       .  S
V2115      V2944   2.085       .  T
V2116      V2943   2.085       .  T
C2117      O2935   1.265   1_545  A
C2119      C2216   1.483       .  S
C2120      C2301   1.486       .  S
C2120      O2938   1.265       .  A
O2121      V2129   1.896       .  S
O2121      C2131   1.268       .  A
O2122      V2129   1.912       .  S
O2122      C2132   1.264       .  A
O2123      V2129   1.911       .  S
O2123      C2133   1.264       .  A
O2124      V2129   1.895       .  S
O2124      C2134   1.267       .  A
O2125      V2130   1.910       .  S
O2126      C2133   1.268       .  A
O2127      C2132   1.268       .  A
O2128      V2130   1.913   1_655  S
C2131      C2175   1.487       .  S
C2132      C2271   1.490       .  S
C2135      C2136   1.392       .  A
C2135      C2447   1.468       .  S
C2136      C2137   1.404       .  A
C2136      H2969   1.084   1_545  S
C2137      C3123   1.484   1_545  S
C2138      C2139   1.416       .  A
C2138      H2142   1.083       .  S
C2139      C2140   1.403       .  A
C2139      C2247   1.484       .  S
C2140      H2143   1.084       .  S
H2141      C2964   1.084       .  S
C2144      C2145   1.391   1_554  A
C2144      C2444   1.468       .  S
C2145      C2146   1.403       .  A
C2145      H2978   1.084   1_545  S
C2146      C2147   1.419   1_556  A
C2146      C3170   1.486   1_545  S
C2147      H2151   1.083   1_554  S
C2148      C2149   1.404       .  A
C2148      C2199   1.486       .  S
C2149      H2152   1.084       .  S
H2150      C2973   1.084       .  S
C2153      C2158   1.391       .  A
C2153      C2430   1.469       .  S
C2154      C2155   1.404       .  A
C2154      H2159   1.084       .  S
C2155      C2327   1.486       .  S
C2156      C2157   1.418       .  A
C2156      H2160   1.083       .  S
C2157      C2158   1.403       .  A
C2162      C2167   1.393       .  A
C2162      C2433   1.472   1_556  S
C2163      C2164   1.405       .  A
C2165      C2166   1.419       .  A
C2165      H2169   1.083       .  S
C2166      C2167   1.404       .  A
C2166      C2343   1.487       .  S
C2167      H2170   1.084       .  S
C2171      C2172   1.390       .  A
C2171      C2176   1.391       .  A
C2171      C2416   1.467       .  S
C2172      H2177   1.084       .  S
C2173      C2174   1.419   1_455  A
C2173      C2248   1.485   1_455  S
C2174      H2178   1.083       .  S
C2175      C2176   1.403       .  A
C2176      H2179   1.084       .  S
C2180      C2181   1.392       .  A
C2180      C2185   1.392       .  A
C2180      C2419   1.468       .  S
C2181      C2182   1.402       .  A
C2181      H2186   1.084       .  S
C2182      C2183   1.417       .  A
C2182      C2200   1.485       .  S
C2183      C2184   1.418       .  A
C2183      H2187   1.083       .  S
C2184      C2185   1.403       .  A
C2184      C2356   1.484       .  S
C2185      H2188   1.084       .  S
O2189      V2197   1.895       .  S
O2189      C2199   1.267       .  A
O2190      V2197   1.909       .  S
O2190      C2200   1.264       .  A
O2191      V2197   1.908       .  S
O2191      C2201   1.263       .  A
O2192      V2197   1.892       .  S
O2192      C2202   1.267       .  A
O2193      V2198   1.911       .  S
O2193      C2202   1.264       .  A
O2194      V2198   1.896       .  S
O2194      C2201   1.268       .  A
O2195      V2198   1.895       .  S
O2195      C2200   1.267       .  A
O2196      V2198   1.911       .  S
O2196      C2199   1.264       .  A
V2197      V2198   2.085       .  T
C2202      C2253   1.484       .  S
C2203      C2204   1.392       .  A
C2203      C2208   1.391       .  A
C2203      C2402   1.468       .  S
C2204      C2205   1.403       .  A
C2204      H2209   1.084       .  S
C2205      C2206   1.419       .  A
C2205      C2232   1.486       .  S
C2206      C2207   1.419       .  A
C2206      H2210   1.083       .  S
C2207      C2208   1.402       .  A
C2207      C2357   1.486       .  S
C2208      H2211   1.084       .  S
C2212      C3041   1.392       .  A
C2212      C2217   1.393       .  A
C2212      C2405   1.469       .  S
C2213      C3040   1.392   1_545  A
C2213      C2214   1.402       .  A
C2213      H2218   1.084       .  S
C2214      C2215   1.417       .  A
C2214      C2245   1.485       .  S
C2215      C2216   1.417       .  A
C2215      H2219   1.083       .  S
C2216      C3045   1.403   1_545  A
C2217      C3044   1.403       .  A
C2217      H2220   1.084       .  S
O2221      V2229   1.915       .  S
O2221      C2231   1.265       .  A
O2222      V2229   1.898       .  S
O2222      C2232   1.268       .  A
O2223      V2229   1.894       .  S
O2223      C2233   1.267       .  A
O2224      V2229   1.911       .  S
O2224      C2234   1.264       .  A
O2225      V2230   1.894       .  S
O2225      C2234   1.267       .  A
O2226      V2230   1.908       .  S
O2226      C2233   1.263       .  A
O2227      V2230   1.909       .  S
O2227      C2232   1.264       .  A
O2228      V2230   1.895       .  S
O2228      C2231   1.267       .  A
V2229      V2230   2.085       .  T
C2234      C2260   1.486       .  S
O2235      V2243   1.909       .  S
O2235      C2245   1.264       .  A
O2236      V2243   1.895       .  S
O2236      C2246   1.267       .  A
O2237      V2243   1.894       .  S
O2237      C2247   1.267       .  A
O2238      V2243   1.908       .  S
O2238      C2248   1.263       .  A
O2239      V2244   1.896       .  S
O2239      C2248   1.268       .  A
O2240      V2244   1.910       .  S
O2240      C2247   1.264       .  A
O2241      V2244   1.910       .  S
O2241      C2246   1.264       .  A
O2242      V2244   1.894       .  S
O2242      C2245   1.267       .  A
V2243      V2244   2.085       .  T
C2249      C2250   1.393   1_554  A
C2249      C2388   1.471       .  S
C2250      C2251   1.403       .  A
C2250      H2255   1.084       .  S
C2251      C2252   1.418       .  A
C2251      C2330   1.486       .  S
C2252      H2256   1.083       .  S
C2253      C2254   1.403       .  A
C2254      H2257   1.084       .  S
C2258      C2263   1.393   1_554  A
C2258      C2391   1.471       .  S
C2259      C2260   1.403       .  A
C2259      H2264   1.084       .  S
C2261      C2262   1.420       .  A
C2261      H2265   1.083       .  S
C2262      C2263   1.404       .  A
C2262      C2298   1.490       .  S
C2263      H2266   1.084       .  S
C2267      C2272   1.392       .  A
C2267      C2377   1.472       .  S
C2268      C2269   1.403       .  A
C2268      H2273   1.084       .  S
C2269      C2270   1.420       .  A
C2269      C2341   1.488       .  S
C2270      C2271   1.421       .  A
C2270      H2274   1.083       .  S
C2272      H2275   1.084       .  S
C2276      C2277   1.393       .  A
C2276      C2281   1.393       .  A
C2276      C2374   1.472       .  S
C2277      C2278   1.405       .  A
C2277      H2282   1.084       .  S
C2278      C2279   1.416       .  A
C2278      C2355   1.484       .  S
C2279      C2280   1.415       .  A
C2279      H2283   1.083       .  S
C2280      C2281   1.404       .  A
C2280      C2296   1.484       .  S
C2281      H2284   1.084       .  S
O2285      V2293   1.907       .  S
O2285      C2295   1.263       .  A
O2286      V2293   1.894       .  S
O2286      C2296   1.266       .  A
O2287      V2293   1.898       .  S
O2287      C2297   1.268       .  A
O2288      V2293   1.912       .  S
O2288      C2298   1.264       .  A
O2289      V2294   1.900       .  S
O2289      C2298   1.269       .  A
O2290      V2294   1.914       .  S
O2290      C2297   1.265       .  A
O2291      V2294   1.910       .  S
O2291      C2296   1.265       .  A
O2292      V2294   1.898       .  S
O2292      C2295   1.268       .  A
V2293      V2294   2.085       .  T
C2295      C2965   1.484       .  S
C2299      C2300   1.394       .  A
C2299      C2304   1.395       .  A
C2299      C2360   1.477       .  S
C2300      C2301   1.404       .  A
C2300      H2305   1.084       .  S
C2301      C3130   1.417       .  A
C2302      C3129   1.417       .  A
C2302      C2303   1.417       .  A
C2302      H2306   1.083       .  S
C2303      C3132   1.404       .  A
C2303      C2344   1.487       .  S
C2304      C3131   1.404       .  A
C2304      H2307   1.084       .  S
C2308      C2309   1.394       .  A
C2308      C2313   1.392       .  A
C2308      C2363   1.477       .  S
C2309      C2310   1.405       .  A
C2309      H2314   1.084       .  S
C2310      C2311   1.418       .  A
C2310      C2328   1.488       .  S
C2311      C2312   1.418       .  A
C2311      H2315   1.083       .  S
C2312      C2313   1.403       .  A
C2312      C2358   1.485       .  S
C2313      H2316   1.084       .  S
O2317      V2325   1.896       .  S
O2317      C2327   1.267       .  A
O2318      V2325   1.912       .  S
O2318      C2328   1.265       .  A
O2319      V2325   1.914       .  S
O2319      C2329   1.265       .  A
O2320      V2325   1.896       .  S
O2320      C2330   1.268       .  A
O2321      V2326   1.910       .  S
O2321      C2330   1.264       .  A
O2322      V2326   1.897       .  S
O2322      C2329   1.268       .  A
O2323      V2326   1.897       .  S
O2323      C2328   1.267       .  A
O2324      V2326   1.909       .  S
O2324      C2327   1.264       .  A
V2325      V2326   2.085       .  T
O2331      V2339   1.913       .  S
O2331      C2341   1.264       .  A
O2332      V2339   1.896       .  S
O2332      C2342   1.268       .  A
O2333      V2339   1.898       .  S
O2333      C2343   1.268       .  A
O2334      V2339   1.912       .  S
O2334      C2344   1.265       .  A
O2335      V2340   1.897       .  S
O2335      C2344   1.267       .  A
O2336      V2340   1.910       .  S
O2336      C2343   1.264       .  A
O2337      V2340   1.910       .  S
O2337      C2342   1.264       .  A
O2338      V2340   1.897       .  S
O2338      C2341   1.268       .  A
V2339      V2340   2.085       .  T
C2342      C2974   1.486       .  S
O2345      V2353   1.895       .  S
O2345      C2355   1.266       .  A
O2346      V2353   1.908       .  S
O2346      C2356   1.264       .  A
O2347      V2353   1.910       .  S
O2347      C2357   1.264       .  A
O2348      V2353   1.895       .  S
O2348      C2358   1.267       .  A
O2349      V2354   1.910       .  S
O2349      C2358   1.264       .  A
O2350      V2354   1.896       .  S
O2350      C2357   1.268       .  A
O2351      V2354   1.896       .  S
O2351      C2356   1.267       .  A
O2352      V2354   1.909       .  S
O2352      C2355   1.264       .  A
V2353      V2354   2.085       .  T
C2359      C2360   1.402       .  A
C2359      C2364   1.402       .  A
C2359      H2366   1.084       .  S
C2360      C2361   1.411       .  A
C2361      C2362   1.402       .  A
C2361      N2368   1.438       .  S
C2362      C2363   1.403       .  A
C2362      H2367   1.084       .  S
C2363      C2364   1.410       .  A
C2364      N2365   1.438       .  S
N2365      H2369   1.046       .  S
N2365      H2370   1.046       .  S
N2368      H2371   1.045       .  S
N2368      H2372   1.046       .  S
C2373      C2374   1.402       .  A
C2373      C2378   1.403       .  A
C2373      H2380   1.084       .  S
C2374      C2375   1.409       .  A
C2375      C2376   1.401       .  A
C2375      N2382   1.438       .  S
C2376      C2377   1.401       .  A
C2376      H2381   1.084       .  S
C2377      C2378   1.409       .  A
C2378      N2379   1.438       .  S
N2379      H2383   1.046       .  S
N2379      H2384   1.046       .  S
N2382      H2385   1.046       .  S
N2382      H2386   1.046       .  S
C2387      C2392   1.402       .  A
C2387      H2394   1.084       .  S
C2388      C2389   1.409   1_554  A
C2389      C2390   1.399       .  A
C2389      N2396   1.438       .  S
C2390      C2391   1.401   1_556  A
C2390      H2395   1.084       .  S
C2392      N2393   1.439       .  S
N2393      H2397   1.046       .  S
N2393      H2398   1.046       .  S
N2396      H2399   1.046       .  S
N2396      H2400   1.046       .  S
C2401      C2402   1.403       .  A
C2401      C2406   1.397       .  A
C2401      H2408   1.084       .  S
C2402      C2403   1.414       .  A
C2403      C2404   1.395       .  A
C2403      N2410   1.439       .  S
C2404      C2405   1.402       .  A
C2404      H2409   1.085       .  S
C2405      C2406   1.415       .  A
C2406      N2407   1.439       .  S
N2407      H2411   1.045       .  S
N2407      H3240   1.043       .  S
N2410      H2413   1.043       .  S
N2410      H2414   1.046       .  S
H2412      N3235   1.043       .  S
C2415      C2416   1.401       .  A
C2415      C2420   1.398       .  A
C2415      H2422   1.084       .  S
C2416      C2417   1.407       .  A
C2417      C2418   1.399       .  A
C2417      N2424   1.433       .  S
C2418      C2419   1.402       .  A
C2418      H2423   1.084       .  S
C2419      C2420   1.408       .  A
C2420      N2421   1.433       .  S
N2421      H2425   1.046       .  S
N2421      H2426   1.046       .  S
N2424      H2427   1.045       .  S
N2424      H2428   1.046       .  S
C2429      C2434   1.402       .  A
C2429      H2436   1.084       .  S
C2431      C2432   1.402       .  A
C2431      N2438   1.438   1_455  S
C2432      H2437   1.084   1_455  S
C2433      C2434   1.409       .  A
C2434      N2435   1.438       .  S
C2443      C2444   1.401   1_556  A
C2443      C2448   1.397       .  A
C2443      H2450   1.084       .  S
C2445      C2446   1.398       .  A
C2445      N3280   1.439   1_545  S
C2446      H3279   1.084   1_545  S
C2447      C2448   1.415       .  A
C2448      N2449   1.440       .  S
N2449      H2453   1.046       .  S
N2449      H2454   1.043       .  S
H2451      C3274   1.084       .  S
N2452      C3273   1.439       .  S
N2452      H2455   1.043       .  S
N2452      H2456   1.046       .  S
C2457      C2458   1.402       .  A
C2457      C2462   1.403       .  A
C2457      H2464   1.084       .  S
C2458      C2459   1.409       .  A
C2459      C2460   1.402       .  A
C2459      N2466   1.438       .  S
C2460      C2461   1.401       .  A
C2460      H2465   1.084       .  S
C2461      C2462   1.410       .  A
C2462      N2463   1.438       .  S
N2463      H2467   1.046       .  S
N2463      H2468   1.046       .  S
N2466      H2470   1.046       .  S
C2471      C2472   1.401       .  A
C2471      C2476   1.400       .  A
C2471      H2478   1.084       .  S
C2472      C2473   1.409       .  A
C2473      C2474   1.400       .  A
C2473      N2480   1.438       .  S
C2474      C2475   1.401       .  A
C2474      H2479   1.084       .  S
C2475      C2476   1.409       .  A
C2476      N2477   1.438       .  S
N2477      H2481   1.046       .  S
N2477      H2482   1.046       .  S
N2480      H2483   1.046       .  S
N2480      H2484   1.046       .  S
C2485      C2486   1.391       .  A
C2485      C2490   1.392       .  A
C2485      C2889   1.469       .  S
C2486      C2487   1.403       .  A
C2486      H2491   1.084       .  S
C2487      C2548   1.485       .  S
C2488      C2489   1.418       .  A
C2488      H2492   1.083   1_455  S
C2489      C2647   1.485   1_455  S
C2490      H2493   1.084       .  S
C2494      C2886   1.468       .  S
C2495      C2496   1.402       .  A
C2496      C2497   1.418       .  A
C2496      C2532   1.486       .  S
C2497      C2498   1.419       .  A
C2497      H2501   1.083       .  S
C2498      C2499   1.403       .  A
C2498      C2615   1.485       .  S
C2499      H2502   1.084       .  S
C2503      C2872   1.472       .  S
C2504      C2505   1.404       .  A
C2504      H2509   1.084       .  S
C2505      C2506   1.418       .  A
C2505      C2743   1.489       .  S
C2506      C2507   1.419       .  A
C2506      H2510   1.083       .  S
C2507      C2508   1.405       .  A
C2507      C2547   1.488       .  S
C2512      C2513   1.392       .  A
C2512      C2517   1.392       .  A
C2512      C2875   1.471       .  S
C2513      H2518   1.084       .  S
C2514      C2515   1.420   1_545  A
C2514      C2711   1.489   1_545  S
C2515      H2519   1.083       .  S
C2516      C2517   1.404       .  A
C2516      C2531   1.489       .  S
C2517      H2520   1.084       .  S
O2521      V2529   1.913   1_565  S
O2522      C2532   1.268       .  A
O2523      C2533   1.268       .  A
O2524      V2529   1.911       .  S
O2525      V2530   1.895       .  S
O2525      C2534   1.267       .  A
O2526      V2530   1.908       .  S
O2526      C2533   1.263       .  A
O2527      V2530   1.911       .  S
O2527      C2532   1.264       .  A
O2528      V2530   1.897       .  S
O2528      C2531   1.268       .  A
C2533      C2630   1.484       .  S
C2534      C2715   1.486       .  S
O2535      V2543   1.895       .  S
O2535      C2545   1.267       .  A
O2536      V2543   1.912       .  S
O2536      C2546   1.264       .  A
O2537      V2543   1.911       .  S
O2537      C2547   1.265       .  A
O2538      V2543   1.896       .  S
O2538      C2548   1.267       .  A
O2539      V2544   1.910       .  S
O2540      C2547   1.268       .  A
O2541      C2546   1.268       .  A
O2542      V2544   1.912   1_655  S
C2545      C2589   1.486       .  S
C2546      C2685   1.489       .  S
C2549      C2550   1.392       .  A
C2549      C2968   1.392       .  A
C2549      C2861   1.468       .  S
C2550      C2551   1.404       .  A
C2551      C2966   1.417       .  A
C2552      C2965   1.417       .  A
C2552      C2553   1.416   1_556  A
C2552      H2556   1.083       .  S
C2553      C2554   1.403       .  A
C2553      C2661   1.485       .  S
C2554      C2963   1.391   1_554  A
C2554      H2557   1.084       .  S
C2558      C2559   1.391       .  A
C2558      C2977   1.391       .  A
C2558      C2858   1.468       .  S
C2559      C2560   1.403       .  A
C2560      C2561   1.419       .  A
C2561      C2976   1.418       .  A
C2561      H2565   1.083       .  S
C2562      C2975   1.418       .  A
C2562      C2563   1.404       .  A
C2562      C2613   1.485       .  S
C2563      C2972   1.391       .  A
C2563      H2566   1.084       .  S
C2567      C2982   1.392       .  A
C2567      C2572   1.392   1_556  A
C2567      C2844   1.471       .  S
C2568      C2981   1.391       .  A
C2568      C2569   1.403       .  A
C2568      H2573   1.084       .  S
C2569      C2984   1.418       .  A
C2569      C2741   1.485       .  S
C2570      C2983   1.418       .  A
C2570      C2571   1.418   1_556  A
C2570      H2574   1.083       .  S
C2571      C2572   1.404       .  A
C2576      C2991   1.392       .  A
C2576      C2581   1.392       .  A
C2576      C2847   1.470       .  S
C2577      C2990   1.392   1_554  A
C2577      C2578   1.405       .  A
C2578      C2993   1.418   1_554  A
C2579      C2992   1.418       .  A
C2579      C2580   1.419       .  A
C2579      H2583   1.083       .  S
C2580      C2581   1.403       .  A
C2580      C2757   1.486       .  S
C2581      H2584   1.084       .  S
C2585      C2586   1.391       .  A
C2585      C2590   1.391       .  A
C2585      C2830   1.467       .  S
C2586      H2591   1.084       .  S
C2587      C2588   1.419   1_455  A
C2587      C2662   1.485   1_455  S
C2588      H2592   1.083       .  S
C2589      C2590   1.402       .  A
C2590      H2593   1.084       .  S
C2594      C2595   1.391       .  A
C2594      C2599   1.391       .  A
C2594      C2833   1.468       .  S
C2595      C2596   1.402       .  A
C2595      H2600   1.084       .  S
C2596      C2597   1.417       .  A
C2596      C2614   1.484       .  S
C2597      C2598   1.417       .  A
C2597      H2601   1.083       .  S
C2598      C2599   1.403       .  A
C2598      C2770   1.483       .  S
C2599      H2602   1.084       .  S
O2603      V2611   1.895       .  S
O2603      C2613   1.267       .  A
O2604      V2611   1.909       .  S
O2604      C2614   1.264       .  A
O2605      V2611   1.908       .  S
O2605      C2615   1.263       .  A
O2606      V2611   1.893       .  S
O2606      C2616   1.267       .  A
O2607      V2612   1.910       .  S
O2607      C2616   1.264       .  A
O2608      V2612   1.895       .  S
O2608      C2615   1.268       .  A
O2609      V2612   1.894       .  S
O2609      C2614   1.267       .  A
O2610      V2612   1.910       .  S
O2610      C2613   1.264       .  A
V2611      V2612   2.085       .  T
C2616      C2667   1.484       .  S
C2617      C2618   1.393       .  A
C2617      C2622   1.391       .  A
C2617      C2816   1.470       .  S
C2618      C2619   1.402       .  A
C2618      H2623   1.084       .  S
C2619      C2620   1.420       .  A
C2619      C2646   1.487       .  S
C2620      C2621   1.419       .  A
C2620      H2624   1.083       .  S
C2621      C2622   1.402       .  A
C2621      C2771   1.486       .  S
C2622      H2625   1.084       .  S
C2626      C2631   1.393       .  A
C2626      C2819   1.471       .  S
C2627      C2628   1.402       .  A
C2627      H2632   1.084       .  S
C2628      C2629   1.417       .  A
C2628      C2659   1.485       .  S
C2629      C2630   1.417       .  A
C2629      H2633   1.083       .  S
C2631      H2634   1.084       .  S
O2635      V2643   1.915       .  S
O2635      C2645   1.266       .  A
O2636      V2643   1.900       .  S
O2636      C2646   1.269       .  A
O2637      V2643   1.895       .  S
O2637      C2647   1.267       .  A
O2638      V2643   1.911       .  S
O2638      C2648   1.264       .  A
O2639      V2644   1.894       .  S
O2639      C2648   1.268       .  A
O2640      V2644   1.909       .  S
O2640      C2647   1.264       .  A
O2641      V2644   1.909       .  S
O2641      C2646   1.263       .  A
O2642      V2644   1.894       .  S
O2642      C2645   1.267       .  A
V2643      V2644   2.085       .  T
C2648      C2674   1.486       .  S
O2649      V2657   1.909       .  S
O2649      C2659   1.264       .  A
O2650      V2657   1.895       .  S
O2650      C2660   1.267       .  A
O2651      V2657   1.894       .  S
O2651      C2661   1.267       .  A
O2652      V2657   1.908       .  S
O2652      C2662   1.263       .  A
O2653      V2658   1.896       .  S
O2653      C2662   1.268       .  A
O2654      V2658   1.910       .  S
O2654      C2661   1.264       .  A
O2655      V2658   1.910       .  S
O2655      C2660   1.264       .  A
O2656      V2658   1.896       .  S
O2656      C2659   1.267       .  A
V2657      V2658   2.085       .  T
C2663      C2664   1.393       .  A
C2663      C3082   1.391       .  A
C2663      C2802   1.473       .  S
C2664      C2665   1.403       .  A
C2664      H2669   1.084       .  S
C2665      C2666   1.417       .  A
C2665      C2744   1.484       .  S
C2666      C3081   1.417       .  A
C2666      H2670   1.083       .  S
C2667      C3080   1.417   1_554  A
C2667      C2668   1.403       .  A
C2668      C3077   1.391       .  A
C2668      H2671   1.084       .  S
C2672      C3087   1.391       .  A
C2672      C2677   1.394       .  A
C2672      C2805   1.473       .  S
C2673      C3086   1.390       .  A
C2673      C2674   1.402       .  A
C2673      H2678   1.084       .  S
C2674      C3089   1.419   1_554  A
C2675      C3088   1.419       .  A
C2675      C2676   1.420       .  A
C2675      H2679   1.083       .  S
C2676      C2677   1.404       .  A
C2676      C2712   1.489       .  S
C2677      H2680   1.084       .  S
C2681      C2686   1.393       .  A
C2681      C2791   1.472       .  S
C2682      C2683   1.403       .  A
C2682      H2687   1.084       .  S
C2683      C2684   1.420       .  A
C2683      C2755   1.489       .  S
C2684      C2685   1.421       .  A
C2684      H2688   1.083       .  S
C2686      H2689   1.084       .  S
C2690      C2691   1.393       .  A
C2690      C2695   1.393       .  A
C2690      C2788   1.472       .  S
C2691      C2692   1.404       .  A
C2691      H2696   1.084       .  S
C2692      C2693   1.416       .  A
C2692      C2769   1.483       .  S
C2693      C2694   1.415       .  A
C2693      H2697   1.083       .  S
C2694      C2695   1.404       .  A
C2694      C2710   1.484       .  S
C2695      H2698   1.084       .  S
O2699      V2707   1.906       .  S
O2699      C2709   1.263       .  A
O2700      V2707   1.894       .  S
O2700      C2710   1.266       .  A
O2701      V2707   1.898       .  S
O2701      C2711   1.268       .  A
O2702      V2707   1.912       .  S
O2702      C2712   1.264       .  A
O2703      V2708   1.899       .  S
O2703      C2712   1.268       .  A
O2704      V2708   1.912       .  S
O2704      C2711   1.264       .  A
O2705      V2708   1.910       .  S
O2705      C2710   1.265       .  A
O2706      V2708   1.898       .  S
O2706      C2709   1.268       .  A
V2707      V2708   2.085       .  T
C2713      C2714   1.395       .  A
C2713      C2718   1.394       .  A
C2713      C2774   1.477       .  S
C2714      C2715   1.405       .  A
C2714      H2719   1.084       .  S
C2716      C2717   1.416       .  A
C2716      H2720   1.083   1_545  S
C2717      C2758   1.486   1_545  S
C2718      H2721   1.084       .  S
C2722      C2723   1.395       .  A
C2722      C2727   1.393       .  A
C2722      C2777   1.477       .  S
C2723      C2724   1.405       .  A
C2723      H2728   1.084       .  S
C2724      C2725   1.417       .  A
C2724      C2742   1.488       .  S
C2725      C2726   1.418       .  A
C2725      H2729   1.083       .  S
C2726      C2727   1.404       .  A
C2726      C2772   1.485       .  S
C2727      H2730   1.084       .  S
O2731      V2739   1.896       .  S
O2731      C2741   1.268       .  A
O2732      V2739   1.912       .  S
O2732      C2742   1.265       .  A
O2733      V2739   1.913       .  S
O2733      C2743   1.265       .  A
O2734      V2739   1.896       .  S
O2734      C2744   1.267       .  A
O2735      V2740   1.909       .  S
O2735      C2744   1.264       .  A
O2736      V2740   1.897       .  S
O2736      C2743   1.268       .  A
O2737      V2740   1.896       .  S
O2737      C2742   1.267       .  A
O2738      V2740   1.909       .  S
O2738      C2741   1.264       .  A
V2739      V2740   2.085       .  T
O2745      V2753   1.913       .  S
O2745      C2755   1.264       .  A
O2746      V2753   1.897       .  S
O2746      C2756   1.268       .  A
O2747      V2753   1.898       .  S
O2747      C2757   1.268       .  A
O2748      V2753   1.911       .  S
O2748      C2758   1.265       .  A
O2749      V2754   1.896       .  S
O2749      C2758   1.267       .  A
O2750      V2754   1.909       .  S
O2750      C2757   1.264       .  A
O2751      V2754   1.910       .  S
O2751      C2756   1.264       .  A
O2752      V2754   1.897       .  S
O2752      C2755   1.268       .  A
V2753      V2754   2.085       .  T
O2759      V2767   1.894       .  S
O2759      C2769   1.267       .  A
O2760      V2767   1.908       .  S
O2760      C2770   1.264       .  A
O2761      V2767   1.909       .  S
O2761      C2771   1.264       .  A
O2762      V2767   1.895       .  S
O2762      C2772   1.267       .  A
O2763      V2768   1.909       .  S
O2763      C2772   1.264       .  A
O2764      V2768   1.896       .  S
O2764      C2771   1.268       .  A
O2765      V2768   1.894       .  S
O2765      C2770   1.267       .  A
O2766      V2768   1.909       .  S
O2766      C2769   1.264       .  A
V2767      V2768   2.085       .  T
C2773      C2774   1.403       .  A
C2773      C2778   1.402       .  A
C2773      H2780   1.084       .  S
C2774      C2775   1.410       .  A
C2775      C2776   1.403       .  A
C2775      N2782   1.438       .  S
C2776      C2777   1.403       .  A
C2776      H2781   1.084       .  S
C2777      C2778   1.411       .  A
C2778      N2779   1.438       .  S
N2779      H2783   1.046       .  S
N2779      H2784   1.046       .  S
N2782      H2785   1.046       .  S
N2782      H2786   1.046       .  S
C2787      C2788   1.402       .  A
C2787      C2792   1.403       .  A
C2787      H2794   1.084       .  S
C2788      C2789   1.409       .  A
C2789      C2790   1.401       .  A
C2789      N2796   1.438       .  S
C2790      C2791   1.401       .  A
C2790      H2795   1.084       .  S
C2791      C2792   1.409       .  A
C2792      N2793   1.438       .  S
N2793      H2797   1.046       .  S
N2793      H2798   1.046       .  S
N2796      H2799   1.046       .  S
N2796      H2800   1.046       .  S
C2801      C3216   1.403       .  A
C2801      C2806   1.402       .  A
C2801      H2808   1.084       .  S
C2802      C3215   1.403       .  A
C2802      C2803   1.409       .  A
C2803      C2804   1.399       .  A
C2803      N2810   1.438       .  S
C2804      C2805   1.402       .  A
C2804      H2809   1.084       .  S
C2805      C3220   1.411       .  A
C2806      C3219   1.411       .  A
C2806      N2807   1.439       .  S
N2807      H2811   1.046       .  S
N2807      H2812   1.046       .  S
N2810      H2813   1.046       .  S
N2810      H2814   1.046       .  S
C2815      C2816   1.403       .  A
C2815      C2820   1.397       .  A
C2815      H2822   1.085       .  S
C2816      C2817   1.414       .  A
C2817      C2818   1.394       .  A
C2817      N2824   1.439       .  S
C2818      C2819   1.402       .  A
C2818      H2823   1.084       .  S
C2819      C2820   1.416       .  A
C2820      N2821   1.439       .  S
N2821      H2825   1.046       .  S
N2824      H2827   1.043       .  S
N2824      H2828   1.046       .  S
C2829      C2830   1.401       .  A
C2829      C2834   1.397       .  A
C2829      H2836   1.084       .  S
C2830      C2831   1.407       .  A
C2831      C2832   1.399       .  A
C2831      N2838   1.433       .  S
C2832      C2833   1.402       .  A
C2832      H2837   1.084       .  S
C2833      C2834   1.407       .  A
C2834      N2835   1.433       .  S
N2835      H2839   1.046       .  S
N2835      H2840   1.045       .  S
N2838      H2841   1.046       .  S
N2838      H2842   1.046       .  S
C2843      C3258   1.401       .  A
C2843      C2848   1.401       .  A
C2843      H2850   1.084       .  S
C2844      C3257   1.401   1_556  A
C2845      C2846   1.403       .  A
C2845      N2852   1.438   1_455  S
C2846      H2851   1.084   1_455  S
C2847      C2848   1.409       .  A
C2848      N2849   1.438       .  S
N2849      H3267   1.046       .  S
N2849      H3268   1.046       .  S
N2852      H3269   1.046       .  S
N2852      H3270   1.046       .  S
H2853      N3263   1.046       .  S
H2854      N3263   1.046       .  S
H2855      N3266   1.046       .  S
H2856      N3266   1.046       .  S
C2857      C2858   1.401       .  A
C2857      C2862   1.397       .  A
C2857      H2864   1.084       .  S
C2858      C3273   1.414       .  A
C2859      C3272   1.414       .  A
C2859      C2860   1.398       .  A
C2860      C3275   1.402   1_554  A
C2861      C3274   1.402       .  A
C2861      C2862   1.415       .  A
C2862      N2863   1.440       .  S
N2863      H2867   1.046       .  S
N2863      H2868   1.043       .  S
N2866      H2869   1.043       .  S
N2866      H2870   1.046       .  S
C2871      C2872   1.402       .  A
C2871      C2876   1.403       .  A
C2871      H2878   1.084       .  S
C2872      C2873   1.409       .  A
C2873      C2874   1.401       .  A
C2873      N2880   1.438       .  S
C2874      C2875   1.401       .  A
C2874      H2879   1.084       .  S
C2875      C2876   1.410       .  A
C2876      N2877   1.438       .  S
N2877      H2881   1.046       .  S
N2877      H2882   1.046       .  S
N2880      H2884   1.046       .  S
C2885      C2886   1.401       .  A
C2885      C2890   1.400       .  A
C2885      H2892   1.084       .  S
C2886      C2887   1.409       .  A
C2887      C2888   1.400       .  A
C2887      N2894   1.438       .  S
C2888      C2889   1.401       .  A
C2888      H2893   1.084       .  S
C2889      C2890   1.409       .  A
C2890      N2891   1.438       .  S
N2891      H2895   1.046       .  S
N2891      H2896   1.046       .  S
N2894      H2897   1.046       .  S
N2894      H2898   1.046       .  S
C2899      C2900   1.391       .  A
C2899      C2904   1.390       .  A
C2899      C3303   1.468       .  S
C2900      C2901   1.403       .  A
C2900      H2905   1.084       .  S
C2901      C2962   1.485       .  S
C2902      C2903   1.418       .  A
C2902      H2906   1.083   1_455  S
C2903      C3061   1.484   1_455  S
C2904      H2907   1.084       .  S
C2908      C3300   1.468       .  S
C2909      C2910   1.402       .  A
C2910      C2911   1.419       .  A
C2910      C2946   1.487       .  S
C2911      C2912   1.419       .  A
C2911      H2915   1.083       .  S
C2912      C2913   1.403       .  A
C2912      C3029   1.485       .  S
C2913      H2916   1.084       .  S
C2917      C3286   1.473       .  S
C2918      C2919   1.405       .  A
C2918      H2923   1.084       .  S
C2919      C2920   1.418       .  A
C2919      C3157   1.489       .  S
C2920      C2921   1.419       .  A
C2920      H2924   1.083       .  S
C2921      C2922   1.404       .  A
C2921      C2961   1.487       .  S
C2926      C2927   1.392       .  A
C2926      C2931   1.392       .  A
C2926      C3289   1.472       .  S
C2927      H2932   1.084       .  S
C2928      C2929   1.421   1_545  A
C2928      C3125   1.490   1_545  S
C2929      H2933   1.083       .  S
C2930      C2931   1.405       .  A
C2930      C2945   1.490       .  S
C2931      H2934   1.084       .  S
O2935      V2943   1.913   1_565  S
O2936      C2946   1.268       .  A
O2937      C2947   1.267       .  A
O2938      V2943   1.911       .  S
O2939      V2944   1.895       .  S
O2939      C2948   1.267       .  A
O2940      V2944   1.907       .  S
O2940      C2947   1.264       .  A
O2941      V2944   1.912       .  S
O2941      C2946   1.264       .  A
O2942      V2944   1.898       .  S
O2942      C2945   1.268       .  A
C2947      C3044   1.483       .  S
C2948      C3129   1.486       .  S
O2949      V2957   1.896       .  S
O2949      C2959   1.268       .  A
O2950      V2957   1.912       .  S
O2950      C2960   1.264       .  A
O2951      V2957   1.911       .  S
O2951      C2961   1.264       .  A
O2952      V2957   1.895       .  S
O2952      C2962   1.267       .  A
O2953      V2958   1.910       .  S
O2954      C2961   1.268       .  A
O2955      C2960   1.268       .  A
O2956      V2958   1.913   1_655  S
C2959      C3003   1.487       .  S
C2960      C3099   1.490       .  S
C2963      C2964   1.392       .  A
C2963      C3275   1.468       .  S
C2964      C2965   1.404       .  A
C2966      C2967   1.416       .  A
C2966      H2970   1.083       .  S
C2967      C2968   1.403       .  A
C2967      C3075   1.484       .  S
C2968      H2971   1.084       .  S
C2972      C2973   1.391   1_554  A
C2972      C3272   1.468       .  S
C2973      C2974   1.403       .  A
C2974      C2975   1.419   1_556  A
C2975      H2979   1.083   1_554  S
C2976      C2977   1.404       .  A
C2976      C3027   1.486       .  S
C2977      H2980   1.084       .  S
C2981      C2986   1.391       .  A
C2981      C3258   1.469       .  S
C2982      C2983   1.404       .  A
C2982      H2987   1.084       .  S
C2983      C3155   1.486       .  S
C2984      C2985   1.418       .  A
C2984      H2988   1.083       .  S
C2985      C2986   1.403       .  A
C2990      C2995   1.393       .  A
C2990      C3261   1.472   1_556  S
C2991      C2992   1.405       .  A
C2993      C2994   1.419       .  A
C2993      H2997   1.083       .  S
C2994      C2995   1.404       .  A
C2994      C3171   1.487       .  S
C2995      H2998   1.084       .  S
C2999      C3000   1.390       .  A
C2999      C3004   1.391       .  A
C2999      C3244   1.467       .  S
C3000      H3005   1.084       .  S
C3001      C3002   1.419   1_455  A
C3001      C3076   1.485   1_455  S
C3002      H3006   1.083       .  S
C3003      C3004   1.403       .  A
C3004      H3007   1.084       .  S
C3008      C3009   1.392       .  A
C3008      C3013   1.392       .  A
C3008      C3247   1.468       .  S
C3009      C3010   1.402       .  A
C3009      H3014   1.084       .  S
C3010      C3011   1.417       .  A
C3010      C3028   1.485       .  S
C3011      C3012   1.418       .  A
C3011      H3015   1.083       .  S
C3012      C3013   1.403       .  A
C3012      C3184   1.484       .  S
C3013      H3016   1.084       .  S
O3017      V3025   1.895       .  S
O3017      C3027   1.267       .  A
O3018      V3025   1.909       .  S
O3018      C3028   1.264       .  A
O3019      V3025   1.908       .  S
O3019      C3029   1.263       .  A
O3020      V3025   1.892       .  S
O3020      C3030   1.267       .  A
O3021      V3026   1.911       .  S
O3021      C3030   1.264       .  A
O3022      V3026   1.896       .  S
O3022      C3029   1.268       .  A
O3023      V3026   1.895       .  S
O3023      C3028   1.267       .  A
O3024      V3026   1.911       .  S
O3024      C3027   1.264       .  A
V3025      V3026   2.085       .  T
C3030      C3081   1.484       .  S
C3031      C3032   1.392       .  A
C3031      C3036   1.391       .  A
C3031      C3230   1.469       .  S
C3032      C3033   1.403       .  A
C3032      H3037   1.084       .  S
C3033      C3034   1.419       .  A
C3033      C3060   1.486       .  S
C3034      C3035   1.419       .  A
C3034      H3038   1.083       .  S
C3035      C3036   1.402       .  A
C3035      C3185   1.486       .  S
C3036      H3039   1.084       .  S
C3040      C3045   1.393       .  A
C3040      C3233   1.470       .  S
C3041      C3042   1.402       .  A
C3041      H3046   1.084       .  S
C3042      C3043   1.417       .  A
C3042      C3073   1.485       .  S
C3043      C3044   1.417       .  A
C3043      H3047   1.083       .  S
C3045      H3048   1.084       .  S
O3049      V3057   1.915       .  S
O3049      C3059   1.265       .  A
O3050      V3057   1.898       .  S
O3050      C3060   1.268       .  A
O3051      V3057   1.894       .  S
O3051      C3061   1.267       .  A
O3052      V3057   1.911       .  S
O3052      C3062   1.264       .  A
O3053      V3058   1.894       .  S
O3053      C3062   1.267       .  A
O3054      V3058   1.908       .  S
O3054      C3061   1.263       .  A
O3055      V3058   1.909       .  S
O3055      C3060   1.264       .  A
O3056      V3058   1.895       .  S
O3056      C3059   1.267       .  A
V3057      V3058   2.085       .  T
C3062      C3088   1.486       .  S
O3063      V3071   1.909       .  S
O3063      C3073   1.264       .  A
O3064      V3071   1.895       .  S
O3064      C3074   1.267       .  A
O3065      V3071   1.894       .  S
O3065      C3075   1.267       .  A
O3066      V3071   1.908       .  S
O3066      C3076   1.263       .  A
O3067      V3072   1.896       .  S
O3067      C3076   1.268       .  A
O3068      V3072   1.910       .  S
O3068      C3075   1.264       .  A
O3069      V3072   1.910       .  S
O3069      C3074   1.264       .  A
O3070      V3072   1.894       .  S
O3070      C3073   1.267       .  A
V3071      V3072   2.085       .  T
C3077      C3078   1.393   1_554  A
C3077      C3216   1.471       .  S
C3078      C3079   1.403       .  A
C3078      H3083   1.084       .  S
C3079      C3080   1.418       .  A
C3079      C3158   1.486       .  S
C3080      H3084   1.083       .  S
C3081      C3082   1.403       .  A
C3082      H3085   1.084       .  S
C3086      C3091   1.393   1_554  A
C3086      C3219   1.471       .  S
C3087      C3088   1.403       .  A
C3087      H3092   1.084       .  S
C3089      C3090   1.420       .  A
C3089      H3093   1.083       .  S
C3090      C3091   1.404       .  A
C3090      C3126   1.490       .  S
C3091      H3094   1.084       .  S
C3095      C3100   1.392       .  A
C3095      C3205   1.472       .  S
C3096      C3097   1.403       .  A
C3096      H3101   1.084       .  S
C3097      C3098   1.420       .  A
C3097      C3169   1.488       .  S
C3098      C3099   1.421       .  A
C3098      H3102   1.083       .  S
C3100      H3103   1.084       .  S
C3104      C3105   1.393       .  A
C3104      C3109   1.393       .  A
C3104      C3202   1.472       .  S
C3105      C3106   1.405       .  A
C3105      H3110   1.084       .  S
C3106      C3107   1.416       .  A
C3106      C3183   1.484       .  S
C3107      C3108   1.415       .  A
C3107      H3111   1.083       .  S
C3108      C3109   1.404       .  A
C3108      C3124   1.484       .  S
C3109      H3112   1.084       .  S
O3113      V3121   1.907       .  S
O3113      C3123   1.263       .  A
O3114      V3121   1.894       .  S
O3114      C3124   1.266       .  A
O3115      V3121   1.898       .  S
O3115      C3125   1.268       .  A
O3116      V3121   1.912       .  S
O3116      C3126   1.264       .  A
O3117      V3122   1.900       .  S
O3117      C3126   1.269       .  A
O3118      V3122   1.914       .  S
O3118      C3125   1.265       .  A
O3119      V3122   1.910       .  S
O3119      C3124   1.265       .  A
O3120      V3122   1.898       .  S
O3120      C3123   1.268       .  A
V3121      V3122   2.085       .  T
C3127      C3128   1.394       .  A
C3127      C3132   1.395       .  A
C3127      C3188   1.477       .  S
C3128      C3129   1.404       .  A
C3128      H3133   1.084       .  S
C3130      C3131   1.417       .  A
C3130      H3134   1.083   1_545  S
C3131      C3172   1.487   1_545  S
C3132      H3135   1.084       .  S
C3136      C3137   1.394       .  A
C3136      C3141   1.392       .  A
C3136      C3191   1.477       .  S
C3137      C3138   1.405       .  A
C3137      H3142   1.084       .  S
C3138      C3139   1.418       .  A
C3138      C3156   1.488       .  S
C3139      C3140   1.418       .  A
C3139      H3143   1.083       .  S
C3140      C3141   1.403       .  A
C3140      C3186   1.485       .  S
C3141      H3144   1.084       .  S
O3145      V3153   1.896       .  S
O3145      C3155   1.267       .  A
O3146      V3153   1.912       .  S
O3146      C3156   1.265       .  A
O3147      V3153   1.914       .  S
O3147      C3157   1.265       .  A
O3148      V3153   1.897       .  S
O3148      C3158   1.268       .  A
O3149      V3154   1.910       .  S
O3149      C3158   1.264       .  A
O3150      V3154   1.897       .  S
O3150      C3157   1.268       .  A
O3151      V3154   1.897       .  S
O3151      C3156   1.267       .  A
O3152      V3154   1.909       .  S
O3152      C3155   1.264       .  A
V3153      V3154   2.085       .  T
O3159      V3167   1.913       .  S
O3159      C3169   1.264       .  A
O3160      V3167   1.896       .  S
O3160      C3170   1.268       .  A
O3161      V3167   1.898       .  S
O3161      C3171   1.268       .  A
O3162      V3167   1.912       .  S
O3162      C3172   1.265       .  A
O3163      V3168   1.897       .  S
O3163      C3172   1.267       .  A
O3164      V3168   1.910       .  S
O3164      C3171   1.264       .  A
O3165      V3168   1.910       .  S
O3165      C3170   1.264       .  A
O3166      V3168   1.897       .  S
O3166      C3169   1.268       .  A
V3167      V3168   2.085       .  T
O3173      V3181   1.895       .  S
O3173      C3183   1.266       .  A
O3174      V3181   1.908       .  S
O3174      C3184   1.264       .  A
O3175      V3181   1.910       .  S
O3175      C3185   1.264       .  A
O3176      V3181   1.895       .  S
O3176      C3186   1.267       .  A
O3177      V3182   1.910       .  S
O3177      C3186   1.264       .  A
O3178      V3182   1.896       .  S
O3178      C3185   1.268       .  A
O3179      V3182   1.896       .  S
O3179      C3184   1.267       .  A
O3180      V3182   1.909       .  S
O3180      C3183   1.264       .  A
V3181      V3182   2.085       .  T
C3187      C3188   1.402       .  A
C3187      C3192   1.402       .  A
C3187      H3194   1.084       .  S
C3188      C3189   1.411       .  A
C3189      C3190   1.402       .  A
C3189      N3196   1.438       .  S
C3190      C3191   1.403       .  A
C3190      H3195   1.084       .  S
C3191      C3192   1.410       .  A
C3192      N3193   1.438       .  S
N3193      H3197   1.046       .  S
N3193      H3198   1.046       .  S
N3196      H3199   1.045       .  S
N3196      H3200   1.046       .  S
C3201      C3202   1.402       .  A
C3201      C3206   1.403       .  A
C3201      H3208   1.084       .  S
C3202      C3203   1.409       .  A
C3203      C3204   1.401       .  A
C3203      N3210   1.438       .  S
C3204      C3205   1.401       .  A
C3204      H3209   1.084       .  S
C3205      C3206   1.409       .  A
C3206      N3207   1.438       .  S
N3207      H3211   1.046       .  S
N3207      H3212   1.046       .  S
N3210      H3213   1.046       .  S
N3210      H3214   1.046       .  S
C3215      C3220   1.402       .  A
C3215      H3222   1.084       .  S
C3216      C3217   1.409   1_554  A
C3217      C3218   1.399       .  A
C3217      N3224   1.438       .  S
C3218      C3219   1.401   1_556  A
C3218      H3223   1.084       .  S
C3220      N3221   1.439       .  S
N3221      H3225   1.046       .  S
N3221      H3226   1.046       .  S
N3224      H3227   1.046       .  S
N3224      H3228   1.046       .  S
C3229      C3230   1.403       .  A
C3229      C3234   1.397       .  A
C3229      H3236   1.084       .  S
C3230      C3231   1.414       .  A
C3231      C3232   1.395       .  A
C3231      N3238   1.439       .  S
C3232      C3233   1.402       .  A
C3232      H3237   1.085       .  S
C3233      C3234   1.415       .  A
C3234      N3235   1.439       .  S
N3235      H3239   1.045       .  S
N3238      H3241   1.043       .  S
N3238      H3242   1.046       .  S
C3243      C3244   1.401       .  A
C3243      C3248   1.398       .  A
C3243      H3250   1.084       .  S
C3244      C3245   1.407       .  A
C3245      C3246   1.399       .  A
C3245      N3252   1.433       .  S
C3246      C3247   1.402       .  A
C3246      H3251   1.084       .  S
C3247      C3248   1.408       .  A
C3248      N3249   1.433       .  S
N3249      H3253   1.046       .  S
N3249      H3254   1.046       .  S
N3252      H3255   1.045       .  S
N3252      H3256   1.046       .  S
C3257      C3262   1.402       .  A
C3257      H3264   1.084       .  S
C3259      C3260   1.402       .  A
C3259      N3266   1.438   1_455  S
C3260      H3265   1.084   1_455  S
C3261      C3262   1.409       .  A
C3262      N3263   1.438       .  S
C3271      C3272   1.401   1_556  A
C3271      C3276   1.397       .  A
C3271      H3278   1.084       .  S
C3273      C3274   1.398       .  A
C3275      C3276   1.415       .  A
C3276      N3277   1.440       .  S
N3277      H3281   1.046       .  S
N3277      H3282   1.043       .  S
N3280      H3283   1.043       .  S
N3280      H3284   1.046       .  S
C3285      C3286   1.402       .  A
C3285      C3290   1.403       .  A
C3285      H3292   1.084       .  S
C3286      C3287   1.409       .  A
C3287      C3288   1.402       .  A
C3287      N3294   1.438       .  S
C3288      C3289   1.401       .  A
C3288      H3293   1.084       .  S
C3289      C3290   1.410       .  A
C3290      N3291   1.438       .  S
N3291      H3295   1.046       .  S
N3291      H3296   1.046       .  S
N3294      H3298   1.046       .  S
C3299      C3300   1.401       .  A
C3299      C3304   1.400       .  A
C3299      H3306   1.084       .  S
C3300      C3301   1.409       .  A
C3301      C3302   1.400       .  A
C3301      N3308   1.438       .  S
C3302      C3303   1.401       .  A
C3302      H3307   1.084       .  S
C3303      C3304   1.409       .  A
C3304      N3305   1.438       .  S
N3305      H3309   1.046       .  S
N3305      H3310   1.046       .  S
N3308      H3311   1.046       .  S
N3308      H3312   1.046       .  S
