geometry optimzed in LAMMPS
_audit_creation_date              2020-11-30 
_audit_creation_method            'lammps2cif' 
_symmetry_space_group_name_H-M    'P1' 
_symmetry_Int_Tables_number       1 
_symmetry_cell_setting            triclinic 
loop_ 
_symmetry_equiv_pos_as_xyz 
  x,y,z 
_cell_length_a                    29.409201421565502 
_cell_length_b                    30.521919111550016 
_cell_length_c                    32.70680746646138 
_cell_angle_alpha                 90.01575213971371 
_cell_angle_beta                  91.29943198770259 
_cell_angle_gamma                 90.2569606097729 
loop_ 
_atom_site_label 
_atom_site_type_symbol 
_atom_site_fract_x 
_atom_site_fract_y 
_atom_site_fract_z 
_atom_site_charge 
O1          O  0.40348116  0.46452252  0.48347125    -0.77000
O2          O  0.09562323  0.03532969  0.47681600    -0.77030
O3          O  0.48937092  0.07725256  0.43766809    -0.77040
O4          O  0.05263014  0.40518648  0.46881371    -0.76980
O5          O  0.03784903  0.10469352  0.48045785    -0.77100
O6          O  0.48105809  0.42521890  0.45861696    -0.77020
O7          O  0.05636476  0.48921154  0.44028837    -0.77000
O8          O  0.42861736  0.01045726  0.43711442    -0.77040
C9          C  0.39890821  0.48312263  0.44926322     1.12690
C10         C  0.09033291  0.01302842  0.44396469     1.12570
C11         C  0.51863280  0.10550258  0.44819919     1.12710
C12         C  0.01514193  0.39979544  0.44984533     1.12590
O13         O  0.44482812  0.40473503  0.53173165    -0.77010
O14         O  0.00987743  0.07735113  0.56087867    -0.77080
O15         O  0.40229566  0.03508437  0.52054027    -0.77020
O16         O  0.09397445  0.46515933  0.51782243    -0.77000
O17         O  0.06980938  0.01071333  0.56061183    -0.77050
O18         O  0.44123028  0.48855957  0.56084311    -0.77020
O19         O  0.01619348  0.42509655  0.54196028    -0.76970
O20         O  0.46036386  0.10434429  0.51783763    -0.77040
Co21       Co  0.46444853  0.45971664  0.51175316     1.51530
Co22       Co  0.05022706  0.05420837  0.51927031     1.51690
Co23       Co  0.44821245  0.05398006  0.47869015     1.51570
Co24       Co  0.03307102  0.45995611  0.48913157     1.51470
O25         O  0.49868565  0.51547775  0.50082440    -1.38940
C26         C  0.98233855  0.39932331  0.54909903     1.12610
C27         C  0.47980428  0.10479861  0.55298138     1.12700
C28         C  0.40754019  0.51373235  0.55550024     1.12640
C29         C  0.09879002  0.98305556  0.55026334     1.12610
C30         C  0.51977901  0.21462749  0.37797293     0.06260
C31         C  0.51596299  0.21394659  0.33524697    -0.09890
C32         C  0.50987232  0.25319263  0.31360501     0.03760
C33         C  0.50726120  0.29304016  0.33460385    -0.08410
C34         C  0.51083946  0.29357517  0.37731112     0.06250
C35         C  0.51707406  0.25442933  0.39895176    -0.07830
H36         H  0.51787516  0.18309342  0.31892333     0.11850
H37         H  0.50287256  0.32343197  0.31781968     0.09380
H38         H  0.51986244  0.25495195  0.43208595     0.09220
C39         C  0.28296631  0.48344363  0.37995998     0.06260
C40         C  0.24198916  0.99062463  0.39681588    -0.09890
C41         C  0.20212361  0.49956839  0.37710536     0.03760
C42         C  0.20333010  0.50123417  0.33439683    -0.08410
C43         C  0.24432933  0.49436388  0.31441154     0.06250
C44         C  0.28417204  0.48544687  0.33717975    -0.07830
H45         H  0.24106007  0.98969545  0.42994981     0.11850
H46         H  0.17253649  0.50824661  0.31677084     0.09380
H47         H  0.31601532  0.48064108  0.32173511     0.09220
C48         C  0.29573398  0.49921561  0.62525481     0.06260
C49         C  0.25574529  0.99104805  0.59971998    -0.09890
C50         C  0.21450166  0.48386274  0.62202522     0.03760
C51         C  0.21333816  0.48479136  0.66488003    -0.08410
C52         C  0.25333022  0.49276031  0.68798272     0.06250
C53         C  0.29451127  0.49984378  0.66808151    -0.07830
H54         H  0.25660349  0.99075066  0.56657254     0.11850
H55         H  0.18138468  0.47980643  0.68016305     0.09380
H56         H  0.32542539  0.50613259  0.68585508     0.09220
C57         C  0.47934915  0.21358829  0.62408150     0.06260
C58         C  0.48088847  0.25333467  0.60281903    -0.09890
C59         C  0.48761322  0.29275190  0.62402799     0.03760
C60         C  0.49282384  0.29253074  0.66664430    -0.08410
C61         C  0.49139928  0.25281335  0.68806096     0.06250
C62         C  0.48475621  0.21327565  0.66678985    -0.07830
H63         H  0.47695465  0.25358537  0.56975362     0.11850
H64         H  0.49766585  0.32312775  0.68308553     0.09380
H65         H  0.48375957  0.18252110  0.68334848     0.09220
C66         C  0.22534714  0.45715745  0.12701766     0.06260
C67         C  0.22080707  0.49644559  0.10522397    -0.09890
C68         C  0.24170734  0.04488211  0.12324439     0.03760
C69         C  0.24397322  0.04274307  0.16613964    -0.08410
C70         C  0.23664671  0.49817319  0.18993868     0.06250
C71         C  0.23336724  0.45802933  0.16931421    -0.07830
H72         H  0.21493632  0.49568686  0.07236435     0.11850
H73         H  0.24415412  0.07269592  0.18398444     0.09380
H74         H  0.23670829  0.42756523  0.18617273     0.09220
O75         O  0.25394263  0.31980874  0.05790165    -0.77000
O76         O  0.21302333  0.14970788  0.01943180    -0.77030
O77         O  0.19121332  0.26007347  0.05603632    -0.77040
O78         O  0.34906199  0.18933433  0.02844427    -0.76980
O79         O  0.14907043  0.21367789  0.02096713    -0.77100
O80         O  0.32245109  0.25024858  0.05699392    -0.77020
O81         O  0.26242244  0.18765370  0.05554253    -0.77000
O82         O  0.18933709  0.34453091  0.02965768    -0.77040
C83         C  0.22124358  0.34810965  0.05616953     1.12690
C84         C  0.23646570  0.15486132  0.05199285     1.12570
C85         C  0.15677163  0.23558561  0.05325102     1.12710
C86         C  0.35297138  0.21998264  0.05457480     1.12590
O87         O  0.34401243  0.28018273  0.97542742    -0.77010
O88         O  0.16511388  0.23314008  0.93603048    -0.77080
O89         O  0.21580902  0.32227421  0.95289258    -0.77020
O90         O  0.28389713  0.14775129  0.97736387    -0.77000
O91         O  0.22988647  0.16934575  0.93469299    -0.77050
O92         O  0.28188214  0.34144867  0.97563996    -0.77020
O93         O  0.32271069  0.21736382  0.95230882    -0.76970
O94         O  0.14499689  0.28331555  0.97998241    -0.77040
Co95       Co  0.29353286  0.29116806  0.01360721     1.51530
Co96       Co  0.19294196  0.19506532  0.97807503     1.51690
Co97       Co  0.20709585  0.29132443  0.00505819     1.51570
Co98       Co  0.29280842  0.20635526  0.00441104     1.51470
O99         O  0.24294113  0.24291906  0.98670469    -1.38940
C100        C  0.34744686  0.25026815  0.94959045     1.12610
C101        C  0.13844133  0.26301841  0.94662720     1.12700
C102        C  0.24981655  0.34639811  0.95027378     1.12640
C103        C  0.26131232  0.14302899  0.94414123     1.12610
C104        C  0.04651488  0.25039873  0.12386299     0.06260
C105        C  0.04494469  0.24973507  0.16659172    -0.09890
C106        C  0.50716626  0.24534872  0.18954968     0.03760
C107        C  0.46612067  0.23957000  0.16775072    -0.08410
C108        C  0.46651400  0.23185411  0.12565572     0.06250
C109        C  0.50775353  0.23037206  0.10524785    -0.07830
H110        H  0.07571474  0.24374433  0.18458775     0.11850
H111        H  0.43410204  0.24038343  0.18356351     0.09380
H112        H  0.50792029  0.22434747  0.07255082     0.09220
C113        C  0.25532728  0.45435449  0.87727108     0.06260
C114        C  0.25200552  0.45500230  0.83445594    -0.09890
C115        C  0.25495548  0.49485540  0.81325981     0.03760
C116        C  0.26145042  0.03454044  0.83122447    -0.08410
C117        C  0.26591401  0.03406448  0.87395872     0.06250
C118        C  0.26154086  0.49367359  0.89891752    -0.07830
H119        H  0.24741684  0.42458677  0.81768050     0.11850
H120        H  0.26216616  0.06540504  0.81482283     0.09380
H121        H  0.26395722  0.49316340  0.93205896     0.09220
C122        C  0.02464764  0.26569141  0.87655132     0.06260
C123        C  0.02657250  0.26491394  0.83389285    -0.09890
C124        C  0.49709081  0.25847698  0.81255052     0.03760
C125        C  0.45587377  0.25517276  0.83304158    -0.08410
C126        C  0.45543919  0.25895397  0.87566081     0.06250
C127        C  0.49602135  0.26606897  0.89777858    -0.07830
H128        H  0.05853025  0.27110731  0.81896090     0.11850
H129        H  0.42435071  0.24966870  0.81592601     0.09380
H130        H  0.49566743  0.26854211  0.93087370     0.09220
C131        C  0.26967837  0.07415442  0.89677766    -0.10140
C132        C  0.26889117  0.10625018  0.91811312    -0.11700
C133        C  0.25273716  0.41351677  0.89938550    -0.10140
C134        C  0.25115643  0.38131488  0.92078816    -0.11700
C135        C  0.39078641  0.22064794  0.08256094    -0.10140
C136        C  0.42470470  0.22494849  0.10329874    -0.11700
C137        C  0.12217706  0.23796709  0.08338630    -0.10140
C138        C  0.08880896  0.24292559  0.10363468    -0.11700
C139        C  0.41370926  0.25530242  0.89729340    -0.10140
C140        C  0.38154180  0.25275677  0.91922960    -0.11700
C141        C  0.09909127  0.27137170  0.92183897    -0.10140
C142        C  0.06523563  0.27185890  0.90074024    -0.11700
C143        C  0.23762392  0.12004317  0.08201052    -0.10140
C144        C  0.23942484  0.08690693  0.10246862    -0.11700
C145        C  0.22057689  0.38337259  0.08502081    -0.10140
C146        C  0.22216330  0.41605850  0.10564432    -0.11700
C147        C  0.49552934  0.25305218  0.73194478    -0.10140
C148        C  0.49728520  0.25493267  0.76873584    -0.11700
C149        C  0.25273577  0.49502098  0.76907219    -0.10140
C150        C  0.25223732  0.49414340  0.73210479    -0.11700
C151        C  0.24513087  0.49689012  0.27051474    -0.10140
C152        C  0.24277827  0.49845070  0.23370576    -0.11700
C153        C  0.50691630  0.25046376  0.23308656    -0.10140
C154        C  0.50752839  0.25255130  0.26979016    -0.11700
C155        C  0.48829244  0.33326690  0.60168402    -0.10140
C156        C  0.48695976  0.36506565  0.57992835    -0.11700
C157        C  0.47398378  0.17330636  0.60148369    -0.10140
C158        C  0.47330958  0.14109545  0.58009641    -0.11700
C159        C  0.50942372  0.33415025  0.39935522    -0.10140
C160        C  0.51048377  0.36584319  0.42119728    -0.11700
C161        C  0.52495538  0.17457154  0.40068610    -0.10140
C162        C  0.52544989  0.14217320  0.42170392    -0.11700
C163        C  0.17306441  0.47827226  0.59808504    -0.10140
C164        C  0.13862445  0.47771092  0.57728001    -0.11700
C165        C  0.33779136  0.50724995  0.60450616    -0.10140
C166        C  0.37123305  0.51232227  0.58420974    -0.11700
C167        C  0.16026537  0.50772654  0.39776558    -0.10140
C168        C  0.12664612  0.01176346  0.41519829    -0.11700
C169        C  0.35882787  0.47665473  0.42420214    -0.10140
C170        C  0.32430829  0.47728832  0.40363044    -0.11700
O171        O  0.40331162  0.96399643  0.48137854    -0.77000
O172        O  0.09536987  0.53647257  0.47888277    -0.77030
O173        O  0.48775417  0.57798925  0.43810801    -0.77040
O174        O  0.05288274  0.90389272  0.46817374    -0.76980
O175        O  0.03769434  0.60576615  0.48230861    -0.77100
O176        O  0.48089860  0.92410323  0.45729709    -0.77020
O177        O  0.05659303  0.98756848  0.43876237    -0.77000
O178        O  0.42796408  0.51090461  0.43882508    -0.77040
C179        C  0.39912528  0.98290152  0.44722271     1.12690
C180        C  0.09014184  0.51446368  0.44589993     1.12570
C181        C  0.51731786  0.60630420  0.44764820     1.12710
C182        C  0.01522391  0.89850076  0.44949940     1.12590
O183        O  0.44406282  0.90380999  0.53041208    -0.77010
O184        O  0.00957374  0.57821672  0.56283203    -0.77080
O185        O  0.40225707  0.53577969  0.52254678    -0.77020
O186        O  0.09422988  0.96425557  0.51614319    -0.77000
O187        O  0.06950216  0.51152439  0.56238611    -0.77050
O188        O  0.44074804  0.98776883  0.55917479    -0.77020
O189        O  0.01680640  0.92437230  0.54141103    -0.76970
O190        O  0.46000213  0.60554728  0.51863991    -0.77040
Co191      Co  0.46403741  0.95868343  0.51032037     1.51530
Co192      Co  0.04991100  0.55519073  0.52113664     1.51690
Co193      Co  0.44758813  0.55478008  0.47998567     1.51570
Co194      Co  0.03331476  0.95876992  0.48800149     1.51470
O195        O  0.49872359  0.01422434  0.49985262    -1.38940
C196        C  0.98291220  0.89891351  0.54942973     1.12610
C197        C  0.48008767  0.60633547  0.55349561     1.12700
C198        C  0.40737771  0.01324710  0.55359599     1.12640
C199        C  0.09855775  0.48390733  0.55203448     1.12610
C200        C  0.51779579  0.71402686  0.37508772     0.06260
C201        C  0.51294286  0.71349860  0.33231031    -0.09890
C202        C  0.50663428  0.75292924  0.31081602     0.03760
C203        C  0.50494026  0.79272072  0.33212819    -0.08410
C204        C  0.50959875  0.79310483  0.37480015     0.06250
C205        C  0.51598197  0.75383341  0.39616609    -0.07830
H206        H  0.51420714  0.68268718  0.31587047     0.11850
H207        H  0.50041062  0.82323869  0.31557366     0.09380
H208        H  0.51954858  0.75425739  0.42925846     0.09220
C209        C  0.28323054  0.98394795  0.37709187     0.06260
C210        C  0.24192710  0.49048515  0.39987176    -0.09890
C211        C  0.20210636  0.99931163  0.37395819     0.03760
C212        C  0.20351885  0.00098359  0.33113981    -0.08410
C213        C  0.24473718  0.99441309  0.31120624     0.06250
C214        C  0.28455684  0.98590211  0.33427307    -0.07830
H215        H  0.24111588  0.48959522  0.43301042     0.11850
H216        H  0.17275114  0.00776080  0.31341407     0.09380
H217        H  0.31654483  0.98137794  0.31899536     0.09220
C218        C  0.29559303  0.99961690  0.62270284     0.06260
C219        C  0.25571668  0.49104685  0.60232310    -0.09890
C220        C  0.21465408  0.98354291  0.61945867     0.03760
C221        C  0.21338564  0.98459512  0.66221301    -0.08410
C222        C  0.25324618  0.99298389  0.68517836     0.06250
C223        C  0.29435543  0.00038519  0.66543699    -0.07830
H224        H  0.25653502  0.49087218  0.56917293     0.11850
H225        H  0.18147783  0.97935095  0.67751484     0.09380
H226        H  0.32519243  0.00693387  0.68325213     0.09220
C227        C  0.47888159  0.71446792  0.62544360     0.06260
C228        C  0.48061267  0.75410340  0.60409136    -0.09890
C229        C  0.48654837  0.79365197  0.62519692     0.03760
C230        C  0.49087441  0.79369276  0.66791686    -0.08410
C231        C  0.48926167  0.75403843  0.68950261     0.06250
C232        C  0.48339399  0.71435509  0.66823384    -0.07830
H233        H  0.47729285  0.75417945  0.57098006     0.11850
H234        H  0.49506432  0.82440889  0.68428479     0.09380
H235        H  0.48218266  0.68365567  0.68486426     0.09220
C236        C  0.24284783  0.96491495  0.12005452     0.06260
C237        C  0.24120102  0.00583867  0.10033547    -0.09890
C238        C  0.22400751  0.53670448  0.12567063     0.03760
C239        C  0.23206468  0.53758697  0.16812476    -0.08410
C240        C  0.24554452  0.00193848  0.18603296     0.06250
C241        C  0.24502773  0.96317256  0.16290971    -0.07830
H242        H  0.23924535  0.00729853  0.06721571     0.11850
H243        H  0.23455917  0.56868088  0.18408684     0.09380
H244        H  0.24592364  0.93168575  0.17826356     0.09220
O245        O  0.26663930  0.82888700  0.04112733    -0.77000
O246        O  0.20807840  0.64592013  0.01873596    -0.77030
O247        O  0.19012782  0.76333440  0.06058670    -0.77040
O248        O  0.31796978  0.74028294  0.06298188    -0.76980
O249        O  0.15147423  0.71572530  0.02181943    -0.77100
O250        O  0.34318213  0.78601374  0.01791560    -0.77020
O251        O  0.25711595  0.67345772  0.06387823    -0.77000
O252        O  0.19476401  0.84754637  0.03127897    -0.77040
C253        C  0.23302031  0.85486490  0.04828773     1.12690
C254        C  0.22763292  0.64520742  0.05382978     1.12570
C255        C  0.15663624  0.73764177  0.05488281     1.12710
C256        C  0.34745927  0.76755121  0.05224332     1.12590
O257        O  0.30536984  0.76058500  0.94082207    -0.77010
O258        O  0.17803640  0.74045116  0.93846342    -0.77080
O259        O  0.23099529  0.82607663  0.95830074    -0.77020
O260        O  0.28544461  0.64485577  0.98381943    -0.77000
O261        O  0.23729426  0.67265650  0.93836935    -0.77050
O262        O  0.30328566  0.84522792  0.96756814    -0.77020
O263        O  0.34397836  0.71403653  0.98006583    -0.76970
O264        O  0.15325186  0.78681132  0.98293434    -0.77040
Co265      Co  0.28263586  0.79141594  0.98908324     1.51530
Co266      Co  0.19682089  0.69654686  0.97974393     1.51690
Co267      Co  0.21399485  0.79210134  0.01173527     1.51570
Co268      Co  0.29807465  0.69604499  0.02226971     1.51470
O269        O  0.24771974  0.73621127  0.00113337    -1.38940
C270        C  0.33888915  0.73535010  0.94673022     1.12610
C271        C  0.14878901  0.76790496  0.94879225     1.12700
C272        C  0.26533786  0.85057716  0.94942674     1.12640
C273        C  0.26566967  0.64374905  0.94879411     1.12610
C274        C  0.04435298  0.74980769  0.12352434     0.06260
C275        C  0.04317815  0.74876450  0.16625065    -0.09890
C276        C  0.50301608  0.75549128  0.18603019     0.03760
C277        C  0.46319021  0.76442902  0.16327680    -0.08410
C278        C  0.46412323  0.76544870  0.12048090     0.06250
C279        C  0.50489861  0.75738856  0.10047405    -0.07830
H280        H  0.07404800  0.74235862  0.18397519     0.11850
H281        H  0.43153306  0.77008949  0.17878203     0.09380
H282        H  0.50551429  0.75768555  0.06731874     0.09220
C283        C  0.25930525  0.95494140  0.87364998     0.06260
C284        C  0.25494211  0.95517677  0.83097597    -0.09890
C285        C  0.25606195  0.99501430  0.80973522     0.03760
C286        C  0.26113003  0.53419913  0.83510794    -0.08410
C287        C  0.26456697  0.53364952  0.87802321     0.06250
C288        C  0.26477482  0.99430982  0.89506201    -0.07830
H289        H  0.25105893  0.92456007  0.81438873     0.11850
H290        H  0.26334303  0.56503780  0.81880428     0.09380
H291        H  0.26800688  0.99401296  0.92817955     0.09220
C292        C  0.03230871  0.76579876  0.87993996     0.06260
C293        C  0.03325037  0.76503424  0.83711575    -0.09890
C294        C  0.49238493  0.75637384  0.81436871     0.03760
C295        C  0.45151022  0.74864987  0.83446343    -0.08410
C296        C  0.45070248  0.74896045  0.87726055     0.06250
C297        C  0.49081145  0.75737035  0.89996180    -0.07830
H298        H  0.06499185  0.77069390  0.82166909     0.11850
H299        H  0.42051080  0.74218718  0.81686264     0.09380
H300        H  0.49032142  0.75731944  0.93312274     0.09220
C301        C  0.26988505  0.57392803  0.90106933    -0.10140
C302        C  0.27106777  0.60644820  0.92227749    -0.11700
C303        C  0.25912792  0.91459216  0.89606086    -0.10140
C304        C  0.26087451  0.88360921  0.91870419    -0.11700
C305        C  0.38792136  0.77325523  0.07691410    -0.10140
C306        C  0.42272708  0.77203766  0.09703207    -0.11700
C307        C  0.12022812  0.73821611  0.08325889    -0.10140
C308        C  0.08643043  0.74245170  0.10302100    -0.11700
C309        C  0.40884590  0.74076668  0.89810621    -0.10140
C310        C  0.37529706  0.73600232  0.91823328    -0.11700
C311        C  0.10847584  0.77344129  0.92386230    -0.10140
C312        C  0.07376825  0.77221586  0.90352955    -0.11700
C313        C  0.22058676  0.60889405  0.08094091    -0.10140
C314        C  0.22038970  0.57680229  0.10251334    -0.11700
C315        C  0.23853163  0.89181235  0.07565020    -0.10140
C316        C  0.24121043  0.92471173  0.09636707    -0.11700
C317        C  0.49223983  0.75434876  0.73351036    -0.10140
C318        C  0.49312200  0.75525564  0.77038413    -0.11700
C319        C  0.25296765  0.99507531  0.76584779    -0.10140
C320        C  0.25213906  0.99429185  0.72903876    -0.11700
C321        C  0.24620730  0.99721112  0.26712551    -0.10140
C322        C  0.24650261  0.99964726  0.23021395    -0.11700
C323        C  0.50220864  0.75399441  0.22998179    -0.10140
C324        C  0.50329186  0.75294768  0.26683982    -0.11700
C325        C  0.48705566  0.83392846  0.60245107    -0.10140
C326        C  0.48560256  0.86503827  0.57982999    -0.11700
C327        C  0.47388715  0.67420050  0.60275215    -0.10140
C328        C  0.47335964  0.64232763  0.58092025    -0.11700
C329        C  0.50893822  0.83359191  0.39718028    -0.10140
C330        C  0.51036963  0.86499440  0.41945169    -0.11700
C331        C  0.52313577  0.67400262  0.39805394    -0.10140
C332        C  0.52388736  0.64227933  0.42007771    -0.11700
C333        C  0.17334695  0.97756385  0.59574491    -0.10140
C334        C  0.13879061  0.97688734  0.57529329    -0.11700
C335        C  0.33759031  0.00764146  0.60218778    -0.10140
C336        C  0.37113575  0.01241605  0.58214210    -0.11700
C337        C  0.16004858  0.00694818  0.39480804    -0.10140
C338        C  0.12666678  0.51299329  0.41762009    -0.11700
C339        C  0.35901051  0.97705284  0.42184895    -0.10140
C340        C  0.32458300  0.97793963  0.40102288    -0.11700
O341        O  0.90355583  0.46461340  0.48239936    -0.77000
O342        O  0.59529940  0.03524065  0.47928077    -0.77030
O343        O  0.98838610  0.07681629  0.43585273    -0.77040
O344        O  0.55252123  0.40528569  0.46977092    -0.76980
O345        O  0.53800150  0.10454882  0.48332780    -0.77100
O346        O  0.98133131  0.42529198  0.45728390    -0.77020
O347        O  0.55590735  0.48906472  0.44072029    -0.77000
O348        O  0.92850776  0.00938463  0.43679129    -0.77040
C349        C  0.89889326  0.48348671  0.44833763     1.12690
C350        C  0.59012593  0.01357049  0.44606651     1.12570
C351        C  0.01769361  0.10533388  0.44564152     1.12710
C352        C  0.51490885  0.39985755  0.45105141     1.12590
O353        O  0.94484545  0.40454796  0.53021671    -0.77010
O354        O  0.50884158  0.07638205  0.56304811    -0.77080
O355        O  0.90268341  0.03478947  0.52026495    -0.77020
O356        O  0.59384138  0.46533419  0.51800709    -0.77000
O357        O  0.56885626  0.00941510  0.56250296    -0.77050
O358        O  0.94139788  0.48817343  0.55977935    -0.77020
O359        O  0.51629482  0.42516686  0.54291133    -0.76970
O360        O  0.96036245  0.10436865  0.51607093    -0.77040
Co361      Co  0.96457022  0.45958413  0.51056183     1.51530
Co362      Co  0.54966808  0.05359137  0.52159434     1.51690
Co363      Co  0.94807433  0.05354672  0.47766535     1.51570
Co364      Co  0.53284713  0.45999590  0.48983448     1.51470
O365        O  0.99885121  0.51542822  0.50013122    -1.38940
C366        C  0.48246936  0.39940976  0.55034826     1.12610
C367        C  0.98025732  0.10523960  0.55097310     1.12700
C368        C  0.90781249  0.51349991  0.55460649     1.12640
C369        C  0.59814035  0.98215961  0.55185945     1.12610
C370        C  0.01781280  0.21452538  0.37484626     0.06260
C371        C  0.01288108  0.21438247  0.33209204    -0.09890
C372        C  0.00670158  0.25398189  0.31088950     0.03760
C373        C  0.00524142  0.29362478  0.33247287    -0.08410
C374        C  0.00997999  0.29369656  0.37515813     0.06250
C375        C  0.01623594  0.25419116  0.39624337    -0.07830
H376        H  0.01397777  0.18369884  0.31542567     0.11850
H377        H  0.00080398  0.32427329  0.31611415     0.09380
H378        H  0.01986042  0.25431936  0.42932991     0.09220
C379        C  0.78245435  0.48358474  0.37939314     0.06260
C380        C  0.74176060  0.99088091  0.39927155    -0.09890
C381        C  0.70146573  0.49927488  0.37663922     0.03760
C382        C  0.70247598  0.50026552  0.33386208    -0.08410
C383        C  0.74343292  0.49322564  0.31379479     0.06250
C384        C  0.78341943  0.48488347  0.33657831    -0.07830
H385        H  0.74119210  0.99049217  0.43242899     0.11850
H386        H  0.67157463  0.50685907  0.31625142     0.09380
H387        H  0.81521773  0.47995870  0.32109137     0.09220
C388        C  0.79616462  0.49870626  0.62419844     0.06260
C389        C  0.75601383  0.99012297  0.60036420    -0.09890
C390        C  0.71498125  0.48341481  0.62113299     0.03760
C391        C  0.71391401  0.48422208  0.66393870    -0.08410
C392        C  0.75394449  0.49211177  0.68689386     0.06250
C393        C  0.79506869  0.49921800  0.66699145    -0.07830
H394        H  0.75660999  0.98977708  0.56720880     0.11850
H395        H  0.68199674  0.47926426  0.67929721     0.09380
H396        H  0.82601582  0.50547750  0.68473275     0.09220
C397        C  0.97846301  0.21370166  0.62209814     0.06260
C398        C  0.98097389  0.25343624  0.60095878    -0.09890
C399        C  0.98675519  0.29277819  0.62244517     0.03760
C400        C  0.99010193  0.29252349  0.66513199    -0.08410
C401        C  0.98768131  0.25278182  0.68632682     0.06250
C402        C  0.98200411  0.21329399  0.66487017    -0.07830
H403        H  0.97835042  0.25375356  0.56781465     0.11850
H404        H  0.99408358  0.32309839  0.68177922     0.09380
H405        H  0.98014725  0.18252482  0.68134031     0.09220
C406        C  0.73733940  0.45595477  0.12495557     0.06260
C407        C  0.73027638  0.49511291  0.10353154    -0.09890
C408        C  0.72793906  0.03454100  0.12473170     0.03760
C409        C  0.73287069  0.03495530  0.16749036    -0.08410
C410        C  0.73964316  0.49627165  0.18891774     0.06250
C411        C  0.74198795  0.45649422  0.16763714    -0.07830
H412        H  0.72674422  0.49459984  0.07043996     0.11850
H413        H  0.73141445  0.06570507  0.18401735     0.09380
H414        H  0.74704487  0.42607811  0.18423623     0.09220
O415        O  0.76700882  0.32433659  0.04283936    -0.77000
O416        O  0.70973041  0.14335856  0.01787510    -0.77030
O417        O  0.69202040  0.25906511  0.06085551    -0.77040
O418        O  0.81953907  0.23775528  0.06212864    -0.76980
O419        O  0.65281222  0.21249633  0.02154147    -0.77100
O420        O  0.84399559  0.28371188  0.01704120    -0.77020
O421        O  0.75898570  0.17074630  0.06302381    -0.77000
O422        O  0.69506522  0.34344211  0.03301429    -0.77040
C423        C  0.73302173  0.34936089  0.05104555     1.12690
C424        C  0.72927751  0.14268776  0.05300582     1.12570
C425        C  0.65878833  0.23316208  0.05519003     1.12710
C426        C  0.84882121  0.26514185  0.05125991     1.12590
O427        O  0.80400102  0.25985670  0.94039231    -0.77010
O428        O  0.67963426  0.23852257  0.93837224    -0.77080
O429        O  0.73082757  0.32457061  0.95939716    -0.77020
O430        O  0.78667221  0.14298288  0.98264613    -0.77000
O431        O  0.73864898  0.17143543  0.93752822    -0.77050
O432        O  0.80273002  0.34403795  0.96914841    -0.77020
O433        O  0.84371916  0.21256286  0.97817404    -0.76970
O434        O  0.65420081  0.28376777  0.98353024    -0.77040
Co435      Co  0.78265871  0.28930889  0.98959447     1.51530
Co436      Co  0.69811626  0.19420169  0.97918187     1.51690
Co437      Co  0.71478627  0.28902348  0.01228415     1.51570
Co438      Co  0.79931051  0.19383276  0.02123352     1.51470
O439        O  0.74868082  0.23366374  0.00078831    -1.38940
C440        C  0.83694375  0.23372184  0.94493695     1.12610
C441        C  0.65076371  0.26626259  0.94869660     1.12700
C442        C  0.76481082  0.34976631  0.95114470     1.12640
C443        C  0.76738714  0.14276002  0.94744307     1.12610
C444        C  0.54880831  0.23601183  0.12709263     0.06260
C445        C  0.54856915  0.24371141  0.16925818    -0.09890
C446        C  0.00363446  0.25649958  0.18612207     0.03760
C447        C  0.96384133  0.26415296  0.16287673    -0.08410
C448        C  0.96534787  0.26504637  0.12009219     0.06250
C449        C  0.00668791  0.25813035  0.10061969    -0.07830
H450        H  0.58039759  0.24771912  0.18627510     0.11850
H451        H  0.93179593  0.26896535  0.17799361     0.09380
H452        H  0.00777751  0.25830550  0.06748356     0.09220
C453        C  0.75896582  0.45551669  0.87617649     0.06260
C454        C  0.75458173  0.45545406  0.83345374    -0.09890
C455        C  0.75649769  0.49505156  0.81179610     0.03760
C456        C  0.76286186  0.03502163  0.83236756    -0.08410
C457        C  0.76726727  0.03472877  0.87518667     0.06250
C458        C  0.76522963  0.49507579  0.89722571    -0.07830
H459        H  0.75018731  0.42473789  0.81712515     0.11850
H460        H  0.76451601  0.06575713  0.81583281     0.09380
H461        H  0.76862748  0.49503385  0.93033016     0.09220
C462        C  0.53712103  0.26951499  0.87739004     0.06260
C463        C  0.53779093  0.26562238  0.83473698    -0.09890
C464        C  0.98732325  0.25527101  0.81058491     0.03760
C465        C  0.94626078  0.24639733  0.82987543    -0.08410
C466        C  0.94467052  0.24691610  0.87256257     0.06250
C467        C  0.98380205  0.25670983  0.89588827    -0.07830
H468        H  0.56976251  0.26786580  0.81895585     0.11850
H469        H  0.91584787  0.23886692  0.81180210     0.09380
H470        H  0.98262599  0.25668633  0.92903400     0.09220
C471        C  0.77277526  0.07487533  0.89804164    -0.10140
C472        C  0.77371051  0.10668524  0.91998189    -0.11700
C473        C  0.75842320  0.41519213  0.89890113    -0.10140
C474        C  0.76010562  0.38380831  0.92120754    -0.11700
C475        C  0.88937736  0.27116175  0.07580258    -0.10140
C476        C  0.92408066  0.27054007  0.09613321    -0.11700
C477        C  0.62385684  0.23162482  0.08484317    -0.10140
C478        C  0.59092743  0.23320728  0.10594254    -0.11700
C479        C  0.90316325  0.23769789  0.89302341    -0.10140
C480        C  0.87093499  0.23305565  0.91453533    -0.11700
C481        C  0.61225928  0.27412527  0.92240124    -0.10140
C482        C  0.57862437  0.27447173  0.90082971    -0.11700
C483        C  0.72207422  0.10658947  0.08023960    -0.10140
C484        C  0.72252387  0.07465602  0.10196642    -0.11700
C485        C  0.73767077  0.38361776  0.08080720    -0.10140
C486        C  0.73872772  0.41536667  0.10269696    -0.11700
C487        C  0.98943863  0.25286982  0.73015069    -0.10140
C488        C  0.98921127  0.25385689  0.76687811    -0.11700
C489        C  0.75362064  0.49464766  0.76776528    -0.10140
C490        C  0.75291083  0.49354568  0.73088336    -0.11700
C491        C  0.74424738  0.49509587  0.26980917    -0.10140
C492        C  0.74307531  0.49631916  0.23293023    -0.11700
C493        C  0.00232293  0.25520525  0.23005845    -0.10140
C494        C  0.00328393  0.25424390  0.26691800    -0.11700
C495        C  0.98786692  0.33329377  0.60032080    -0.10140
C496        C  0.98666130  0.36508243  0.57865110    -0.11700
C497        C  0.97366240  0.17353230  0.59941394    -0.10140
C498        C  0.97338858  0.14138773  0.57803534    -0.11700
C499        C  0.00941650  0.33411994  0.39775522    -0.10140
C500        C  0.01079730  0.36570364  0.41986214    -0.11700
C501        C  0.02301856  0.17416349  0.39733028    -0.10140
C502        C  0.02381956  0.14186191  0.41861236    -0.11700
C503        C  0.67345609  0.47806762  0.59745251    -0.10140
C504        C  0.63878808  0.47776675  0.57706582    -0.11700
C505        C  0.83814060  0.50684071  0.60349104    -0.10140
C506        C  0.87159128  0.51200919  0.58329800    -0.11700
C507        C  0.65962472  0.50745832  0.39744425    -0.10140
C508        C  0.62656235  0.01275332  0.41761626    -0.11700
C509        C  0.85864798  0.47728713  0.42337011    -0.10140
C510        C  0.82397491  0.47784103  0.40297032    -0.11700
O511        O  0.90394197  0.96338751  0.48178497    -0.77000
O512        O  0.59513624  0.53654062  0.47888162    -0.77030
O513        O  0.98812157  0.57811884  0.43767291    -0.77040
O514        O  0.55227980  0.90402825  0.46858479    -0.76980
O515        O  0.53740105  0.60587138  0.48251129    -0.77100
O516        O  0.98136173  0.92378803  0.45722125    -0.77020
O517        O  0.55646281  0.98817062  0.44024553    -0.77000
O518        O  0.92803110  0.51124719  0.43800393    -0.77040
C519        C  0.89928074  0.98188936  0.44752229     1.12690
C520        C  0.58974429  0.51433546  0.44602153     1.12570
C521        C  0.01777204  0.60628608  0.44736975     1.12710
C522        C  0.51474767  0.89875707  0.44966950     1.12590
O523        O  0.94526535  0.90394118  0.53072441    -0.77010
O524        O  0.50975478  0.57841485  0.56314724    -0.77080
O525        O  0.90250826  0.53576566  0.52180046    -0.77020
O526        O  0.59360715  0.96369718  0.51754413    -0.77000
O527        O  0.56975488  0.51182912  0.56261292    -0.77050
O528        O  0.94175601  0.98807099  0.55900949    -0.77020
O529        O  0.51561619  0.92395776  0.54178149    -0.76970
O530        O  0.96020422  0.60560785  0.51816696    -0.77040
Co531      Co  0.96489538  0.95871423  0.51014656     1.51530
Co532      Co  0.54988995  0.55535566  0.52135059     1.51690
Co533      Co  0.94781656  0.55489406  0.47936955     1.51570
Co534      Co  0.53278306  0.95876236  0.48889618     1.51470
O535        O  0.99914370  0.01431963  0.49868492    -1.38940
C536        C  0.48153190  0.89861376  0.54941092     1.12610
C537        C  0.98014082  0.60633242  0.55309449     1.12700
C538        C  0.90797935  0.01307626  0.55340529     1.12640
C539        C  0.59863684  0.48410844  0.55213711     1.12610
C540        C  0.01827178  0.71391544  0.37492853     0.06260
C541        C  0.01295877  0.71336829  0.33219643    -0.09890
C542        C  0.00633953  0.75278772  0.31077741     0.03760
C543        C  0.00481070  0.79256593  0.33209279    -0.08410
C544        C  0.00990347  0.79293333  0.37471531     0.06250
C545        C  0.01659691  0.75369619  0.39603330    -0.07830
H546        H  0.01408703  0.68255985  0.31573949     0.11850
H547        H  0.00004073  0.82307987  0.31558063     0.09380
H548        H  0.02047423  0.75412301  0.42910481     0.09220
C549        C  0.78258477  0.98320203  0.37921811     0.06260
C550        C  0.74146099  0.49074964  0.39936298    -0.09890
C551        C  0.70181030  0.99971408  0.37661079     0.03760
C552        C  0.70270359  0.00057792  0.33382982    -0.08410
C553        C  0.74351865  0.99302893  0.31370214     0.06250
C554        C  0.78345996  0.98436582  0.33641143    -0.07830
H555        H  0.74082057  0.49034648  0.43251598     0.11850
H556        H  0.67180826  0.00732684  0.31626546     0.09380
H557        H  0.81514344  0.97899064  0.32086700     0.09220
C558        C  0.79613586  0.99856853  0.62307210     0.06260
C559        C  0.75610763  0.49062641  0.60131597    -0.09890
C560        C  0.71497329  0.98288603  0.62035129     0.03760
C561        C  0.71406777  0.98405211  0.66316328    -0.08410
C562        C  0.75413089  0.99232372  0.68596552     0.06250
C563        C  0.79515921  0.99943936  0.66588306    -0.07830
H564        H  0.75681758  0.49057855  0.56816189     0.11850
H565        H  0.68223640  0.97905011  0.67864967     0.09380
H566        H  0.82613301  0.00595950  0.68349972     0.09220
C567        C  0.97929940  0.71458320  0.62514004     0.06260
C568        C  0.98132335  0.75428220  0.60387841    -0.09890
C569        C  0.98756037  0.79376443  0.62506774     0.03760
C570        C  0.99183023  0.79366688  0.66779776    -0.08410
C571        C  0.98992938  0.75397676  0.68931701     0.06250
C572        C  0.98377441  0.71436921  0.66795084    -0.07830
H573        H  0.97806250  0.75445450  0.57076576     0.11850
H574        H  0.99627308  0.82431576  0.68422880     0.09380
H575        H  0.98237721  0.68364189  0.68452020     0.09220
C576        C  0.73684013  0.95553079  0.12472043     0.06260
C577        C  0.73004064  0.99483902  0.10350126    -0.09890
C578        C  0.72785034  0.53493318  0.12456715     0.03760
C579        C  0.73268997  0.53557141  0.16735583    -0.08410
C580        C  0.73958687  0.99552295  0.18885936     0.06250
C581        C  0.74160433  0.95581587  0.16740767    -0.07830
H582        H  0.72643187  0.99453265  0.07041210     0.11850
H583        H  0.73098736  0.56638342  0.18375213     0.09380
H584        H  0.74646173  0.92528552  0.18386668     0.09220
O585        O  0.76569833  0.82476220  0.04159187    -0.77000
O586        O  0.70880728  0.64354343  0.01733983    -0.77030
O587        O  0.69024853  0.75971046  0.05988269    -0.77040
O588        O  0.81777231  0.73858783  0.06221364    -0.76980
O589        O  0.65129520  0.71271440  0.02088747    -0.77100
O590        O  0.84283804  0.78458730  0.01738709    -0.77020
O591        O  0.75739014  0.67154965  0.06260393    -0.77000
O592        O  0.69379882  0.84394426  0.03171013    -0.77040
C593        C  0.73171521  0.84973585  0.04983517     1.12690
C594        C  0.72818283  0.64307179  0.05252252     1.12570
C595        C  0.65655666  0.73433207  0.05409639     1.12710
C596        C  0.84712518  0.76607162  0.05167493     1.12590
O597        O  0.80557423  0.76000819  0.94001851    -0.77010
O598        O  0.67749151  0.73834755  0.93767618    -0.77080
O599        O  0.73012957  0.82465804  0.95830407    -0.77020
O600        O  0.78614522  0.64377849  0.98239552    -0.77000
O601        O  0.73762772  0.67156736  0.93717013    -0.77050
O602        O  0.80210110  0.84425843  0.96818418    -0.77020
O603        O  0.84412608  0.71310858  0.97905495    -0.76970
O604        O  0.65280715  0.78418479  0.98264130    -0.77040
Co605      Co  0.78218732  0.78957832  0.98865911     1.51530
Co606      Co  0.69687786  0.69433585  0.97865444     1.51690
Co607      Co  0.71356251  0.78940302  0.01121713     1.51570
Co608      Co  0.79830934  0.69452685  0.02117506     1.51470
O609        O  0.74772976  0.73409356  0.99988901    -1.38940
C610        C  0.83914126  0.73477156  0.94587492     1.12610
C611        C  0.64833100  0.76573939  0.94831542     1.12700
C612        C  0.76417934  0.84984355  0.95007774     1.12640
C613        C  0.76673716  0.64324386  0.94722693     1.12610
C614        C  0.54474976  0.74836315  0.12321233     0.06260
C615        C  0.54379162  0.74760534  0.16597909    -0.09890
C616        C  0.00214103  0.75572908  0.18612675     0.03760
C617        C  0.96224982  0.76402485  0.16325485    -0.08410
C618        C  0.96340683  0.76530586  0.12047609     0.06250
C619        C  0.00445734  0.75815686  0.10062721    -0.07830
H620        H  0.57460970  0.74068609  0.18359527     0.11850
H621        H  0.93039812  0.76900261  0.17864615     0.09380
H622        H  0.00526783  0.75866402  0.06748123     0.09220
C623        C  0.75868570  0.95560041  0.87516861     0.06260
C624        C  0.75444689  0.95576434  0.83243607    -0.09890
C625        C  0.75658968  0.99546108  0.81094471     0.03760
C626        C  0.76270157  0.53472801  0.83300838    -0.08410
C627        C  0.76724931  0.53467251  0.87580118     0.06250
C628        C  0.76502467  0.99502577  0.89640861    -0.07830
H629        H  0.75000303  0.92513879  0.81596905     0.11850
H630        H  0.76417135  0.56538370  0.81632623     0.09380
H631        H  0.76832968  0.99479387  0.92951881     0.09220
C632        C  0.53167990  0.76522359  0.87992321     0.06260
C633        C  0.53245332  0.76466488  0.83711640    -0.09890
C634        C  0.99331151  0.75638189  0.81425369     0.03760
C635        C  0.95241615  0.74850086  0.83425666    -0.08410
C636        C  0.95141825  0.74900953  0.87703967     0.06250
C637        C  0.99138300  0.75776684  0.89985344    -0.07830
H638        H  0.56417868  0.77015730  0.82158994     0.11850
H639        H  0.92152157  0.74178867  0.81658475     0.09380
H640        H  0.99072955  0.75789162  0.93300809     0.09220
C641        C  0.77259477  0.57499212  0.89838218    -0.10140
C642        C  0.77333130  0.60703493  0.92000734    -0.11700
C643        C  0.75796157  0.91517949  0.89773718    -0.10140
C644        C  0.75953808  0.88379143  0.92004241    -0.11700
C645        C  0.88735422  0.77211087  0.07656841    -0.10140
C646        C  0.92203920  0.77130220  0.09686513    -0.11700
C647        C  0.62012600  0.73515472  0.08251165    -0.10140
C648        C  0.58653728  0.74003018  0.10247553    -0.11700
C649        C  0.90947038  0.74069978  0.89771678    -0.10140
C650        C  0.87574738  0.73577655  0.91758546    -0.11700
C651        C  0.60808772  0.77179365  0.92349363    -0.10140
C652        C  0.57328023  0.77110111  0.90333870    -0.11700
C653        C  0.72141728  0.60682887  0.07976423    -0.10140
C654        C  0.72217353  0.57493287  0.10158471    -0.11700
C655        C  0.73637561  0.88368095  0.07990547    -0.10140
C656        C  0.73777116  0.91510675  0.10218709    -0.11700
C657        C  0.99307184  0.75419788  0.73335182    -0.10140
C658        C  0.99411275  0.75514999  0.77024353    -0.11700
C659        C  0.75387596  0.99522461  0.76687925    -0.10140
C660        C  0.75321355  0.99403987  0.72998178    -0.11700
C661        C  0.74423073  0.99450286  0.26972216    -0.10140
C662        C  0.74305591  0.99546298  0.23284943    -0.11700
C663        C  0.00122167  0.75400968  0.23002950    -0.10140
C664        C  0.00253129  0.75283297  0.26686011    -0.11700
C665        C  0.98852785  0.83413126  0.60240971    -0.10140
C666        C  0.98730298  0.86535527  0.57988391    -0.11700
C667        C  0.97416902  0.67434073  0.60234047    -0.10140
C668        C  0.97355009  0.64243990  0.58049573    -0.11700
C669        C  0.00928393  0.83336768  0.39709326    -0.10140
C670        C  0.01074885  0.86473109  0.41936632    -0.11700
C671        C  0.02381109  0.67392814  0.39784963    -0.10140
C672        C  0.02457373  0.64223356  0.41987460    -0.11700
C673        C  0.67334905  0.97705586  0.59684620    -0.10140
C674        C  0.63851909  0.97629258  0.57665611    -0.11700
C675        C  0.83807071  0.00664710  0.60218574    -0.10140
C676        C  0.87156731  0.01173219  0.58198392    -0.11700
C677        C  0.66004539  0.00788521  0.39748407    -0.10140
C678        C  0.62613295  0.51273694  0.41750706    -0.11700
C679        C  0.85881876  0.97587114  0.42287696    -0.10140
C680        C  0.82404753  0.97686579  0.40267345    -0.11700
loop_ 
_geom_bond_atom_site_label_1 
_geom_bond_atom_site_label_2 
_geom_bond_distance 
_geom_bond_site_symmetry_2 
_ccdc_geom_bond_type 
O1            C9   1.260       .  A
O1          Co21   2.005       .  S
O2           C10   1.278       .  A
O2          Co22   2.033       .  S
O3           C11   1.258       .  A
O3          Co23   1.959       .  S
O4           C12   1.263       .  A
O4          Co24   1.895       .  S
O5          C351   1.272       .  A
O5          Co22   2.026       .  S
O6          C352   1.292       .  A
O6          Co21   2.100       .  S
O7          C180   1.265       .  A
O7          Co24   1.966       .  S
O8          C179   1.255   1_545  A
O8          Co23   1.975       .  S
C9          O178   1.254       .  A
C9          C169   1.433       .  S
C10         O177   1.266   1_545  A
C10         C168   1.440       .  S
C11         O345   1.271       .  A
C11         C162   1.432       .  S
C12         O346   1.293   1_455  A
C12         C500   1.433       .  S
O13         C366   1.262       .  A
O13         Co21   1.893       .  S
O14         C367   1.258   1_455  A
O14         Co22   1.959       .  S
O15         C198   1.276       .  A
O15         Co23   2.027       .  S
O16         C199   1.261       .  A
O16         Co24   2.009       .  S
O17          C29   1.254   1_545  A
O17         Co22   1.974       .  S
O18          C28   1.266       .  A
O18         Co21   1.968       .  S
O19          C26   1.292   1_455  A
O19         Co24   2.097       .  S
O20          C27   1.272       .  A
O20         Co23   2.026       .  S
Co21         O25   2.010       .  S
Co22        O535   2.032   1_455  S
Co23        O195   2.032       .  S
Co24        O365   2.010   1_455  S
O25        Co532   2.034       .  S
O25        Co193   2.033       .  S
O25        Co364   2.009       .  S
C26         O353   1.262       .  A
C26         C496   1.428       .  S
C27         O354   1.259       .  A
C27         C158   1.435       .  S
C28         O185   1.278       .  A
C28         C166   1.438       .  S
C29         O186   1.259       .  A
C29         C334   1.431       .  S
C30         C161   1.438       .  S
C30          C31   1.400       .  A
C30          C35   1.399       .  A
C31          C32   1.402       .  A
C31          H36   1.085       .  S
C32         C154   1.433       .  S
C32          C33   1.400       .  A
C33          C34   1.398       .  A
C33          H37   1.085       .  S
C34         C159   1.434       .  S
C34          C35   1.400       .  A
C35          H38   1.085       .  S
C39         C170   1.440       .  S
C39          C44   1.402       .  A
C39         C210   1.402       .  A
C40         C209   1.402       .  A
C40         C211   1.403       .  A
C40          H45   1.085       .  S
C41         C167   1.440       .  S
C41          C42   1.399       .  A
C41         C210   1.402       .  A
C42          C43   1.401       .  A
C42          H46   1.085       .  S
C43         C151   1.439       .  S
C43          C44   1.402       .  A
C44          H47   1.085       .  S
C48         C165   1.444       .  S
C48          C53   1.402       .  A
C48         C219   1.402       .  A
C49         C218   1.401       .  A
C49         C220   1.401       .  A
C49          H54   1.085       .  S
C50         C163   1.443       .  S
C50          C51   1.403       .  A
C50         C219   1.402       .  A
C51          C52   1.404       .  A
C51          H55   1.085       .  S
C52         C150   1.445       .  S
C52          C53   1.404       .  A
C53          H56   1.084       .  S
C57         C157   1.441       .  S
C57          C58   1.400       .  A
C57          C62   1.402       .  A
C58          C59   1.400       .  A
C58          H63   1.085       .  S
C59         C155   1.437       .  S
C59          C60   1.399       .  A
C60          C61   1.401       .  A
C60          H64   1.085       .  S
C61         C147   1.438       .  S
C61          C62   1.403       .  A
C62          H65   1.084       .  S
C66         C146   1.438       .  S
C66          C67   1.401       .  A
C66          C71   1.398       .  A
C67         C238   1.401       .  A
C67          H72   1.085       .  S
C68         C144   1.453       .  S
C68          C69   1.405       .  A
C68         C237   1.407       .  A
C69         C240   1.406       .  A
C69          H73   1.084       .  S
C70         C152   1.439       .  S
C70          C71   1.400       .  A
C70         C239   1.404       .  A
C71          H74   1.085       .  S
O75          C83   1.296       .  A
O75         Co95   2.075       .  S
O76          C84   1.265       .  A
O76         Co96   2.017   1_554  S
O77          C85   1.258       .  A
O77         Co97   1.985       .  S
O78          C86   1.270       .  A
O78         Co98   1.890       .  S
O79          C85   1.265       .  A
O79         Co96   2.011   1_554  S
O80          C86   1.295       .  A
O80         Co95   2.062       .  S
O81          C84   1.260       .  A
O81         Co98   1.996       .  S
O82          C83   1.267       .  A
O82         Co97   1.893       .  S
C83         C145   1.432       .  S
C84         C143   1.447       .  S
C85         C137   1.435       .  S
C86         C135   1.424       .  S
O87         C100   1.250       .  A
O87         Co95   1.991   1_556  S
O88         C101   1.259       .  A
O88         Co96   1.967       .  S
O89         C102   1.244       .  A
O89         Co97   1.972   1_556  S
O90         C103   1.268       .  A
O90         Co98   2.009   1_556  S
O91         C103   1.260       .  A
O91         Co96   1.972       .  S
O92         C102   1.252       .  A
O92         Co95   2.000   1_556  S
O93         C100   1.242       .  A
O93         Co98   1.964   1_556  S
O94         C101   1.265       .  A
O94         Co97   1.999   1_556  S
Co95         O99   2.253   1_554  S
Co96         O99   2.083       .  S
Co97         O99   1.923   1_554  S
Co98         O99   1.926   1_554  S
C100        C140   1.429       .  S
C101        C141   1.422       .  S
C102        C134   1.438       .  S
C103        C132   1.430       .  S
C104        C138   1.441       .  S
C104        C105   1.399       .  A
C104        C449   1.403       .  A
C105        C446   1.401       .  A
C105        H110   1.085       .  S
C106        C153   1.433       .  S
C106        C107   1.398       .  A
C106        C445   1.401       .  A
C107        C108   1.397       .  A
C107        H111   1.085       .  S
C108        C136   1.431       .  S
C108        C109   1.398       .  A
C109        C444   1.399       .  A
C109        H112   1.085       .  S
C113        C133   1.444       .  S
C113        C114   1.402       .  A
C113        C118   1.402       .  A
C114        C115   1.404       .  A
C114        H119   1.085       .  S
C115        C149   1.445       .  S
C115        C286   1.406       .  A
C116        C117   1.401       .  A
C116        C285   1.403   1_545  A
C116        H120   1.085       .  S
C117        C131   1.436       .  S
C117        C288   1.397   1_545  A
C118        C287   1.402       .  A
C118        H121   1.085       .  S
C122        C142   1.429       .  S
C122        C123   1.398       .  A
C122        C467   1.396   1_455  A
C123        C464   1.399   1_455  A
C123        H128   1.085       .  S
C124        C148   1.437       .  S
C124        C125   1.402       .  A
C124        C463   1.402       .  A
C125        C126   1.399       .  A
C125        H129   1.084       .  S
C126        C139   1.434       .  S
C126        C127   1.398       .  A
C127        C462   1.397       .  A
C127        H130   1.085       .  S
C131        C132   1.203       .  T
C133        C134   1.208       .  T
C135        C136   1.200       .  T
C137        C138   1.206       .  T
C139        C140   1.202       .  T
C141        C142   1.199       .  T
C143        C144   1.214       .  T
C145        C146   1.204       .  T
C147        C148   1.205       .  T
C149        C150   1.209       .  T
C151        C152   1.205       .  T
C153        C154   1.202       .  T
C155        C156   1.204       .  T
C156        C366   1.431       .  S
C157        C158   1.206       .  T
C159        C160   1.202       .  T
C160        C352   1.429       .  S
C161        C162   1.204       .  T
C163        C164   1.207       .  T
C164        C199   1.437       .  S
C165        C166   1.208       .  T
C167        C338   1.206       .  T
C168        C337   1.209       .  T
C169        C170   1.205       .  T
O171        C179   1.261       .  A
O171       Co191   2.009       .  S
O172        C180   1.277       .  A
O172       Co192   2.028       .  S
O173        C181   1.257       .  A
O173       Co193   1.959       .  S
O174        C182   1.263       .  A
O174       Co194   1.893       .  S
O175        C521   1.272       .  A
O175       Co192   2.027       .  S
O176        C522   1.292       .  A
O176       Co191   2.100       .  S
O177       Co194   1.970       .  S
O178       Co193   1.974       .  S
C179        C339   1.437       .  S
C180        C338   1.434       .  S
C181        O515   1.272       .  A
C181        C332   1.436       .  S
C182        O516   1.292   1_455  A
C182        C670   1.429       .  S
O183        C536   1.263       .  A
O183       Co191   1.895       .  S
O184        C537   1.258   1_455  A
O184       Co192   1.960       .  S
O185       Co193   2.032       .  S
O186       Co194   2.002       .  S
O187        C199   1.255       .  A
O187       Co192   1.975       .  S
O188        C198   1.265   1_565  A
O188       Co191   1.966       .  S
O189        C196   1.293   1_455  A
O189       Co194   2.103       .  S
O190        C197   1.272       .  A
O190       Co193   2.026       .  S
Co191       O195   2.008   1_565  S
Co192       O365   2.034   1_455  S
Co194       O535   2.009   1_465  S
O195       Co362   2.032       .  S
O195       Co534   2.007   1_545  S
C196        O523   1.263       .  A
C196        C666   1.433       .  S
C197        O524   1.258       .  A
C197        C328   1.435       .  S
C198        C336   1.433       .  S
C200        C331   1.442       .  S
C200        C201   1.403       .  A
C200        C205   1.399       .  A
C201        C202   1.405       .  A
C201        H206   1.084       .  S
C202        C324   1.439       .  S
C202        C203   1.402       .  A
C203        C204   1.399       .  A
C203        H207   1.085       .  S
C204        C329   1.437       .  S
C204        C205   1.399       .  A
C205        H208   1.085       .  S
C209        C340   1.444       .  S
C209        C214   1.403       .  A
C210        H215   1.085       .  S
C211        C337   1.446   1_565  S
C211        C212   1.403   1_565  A
C212        C213   1.405   1_545  A
C212        H216   1.084       .  S
C213        C321   1.446       .  S
C213        C214   1.404       .  A
C214        H217   1.085       .  S
C218        C335   1.439   1_565  S
C218        C223   1.399   1_565  A
C219        H224   1.085       .  S
C220        C333   1.437       .  S
C220        C221   1.400       .  A
C221        C222   1.400       .  A
C221        H225   1.085       .  S
C222        C320   1.436       .  S
C222        C223   1.401   1_565  A
C223        H226   1.085       .  S
C227        C327   1.441       .  S
C227        C228   1.398       .  A
C227        C232   1.403       .  A
C228        C229   1.399       .  A
C228        H233   1.085       .  S
C229        C325   1.437       .  S
C229        C230   1.400       .  A
C230        C231   1.403       .  A
C230        H234   1.085       .  S
C231        C317   1.440       .  S
C231        C232   1.405       .  A
C232        H235   1.084       .  S
C236        C316   1.451       .  S
C236        C237   1.406   1_565  A
C236        C241   1.403       .  A
C237        H242   1.084       .  S
C238        C314   1.443       .  S
C238        C239   1.404       .  A
C239        H243   1.084       .  S
C240        C322   1.446   1_545  S
C240        C241   1.404   1_545  A
C241        H244   1.085       .  S
O245        C253   1.296       .  A
O245       Co265   2.114   1_554  S
O246        C254   1.272       .  A
O246       Co266   2.027   1_554  S
O247        C255   1.267       .  A
O247       Co267   1.965       .  S
O248        C256   1.255       .  A
O248       Co268   1.974       .  S
O249        C255   1.277       .  A
O249       Co266   2.026   1_554  S
O250        C256   1.260       .  A
O250       Co265   2.003   1_554  S
O251        C254   1.258       .  A
O251       Co268   1.961       .  S
O252        C253   1.263       .  A
O252       Co267   1.902       .  S
C253        C315   1.446       .  S
C254        C313   1.437       .  S
C255        C307   1.433       .  S
C256        C305   1.432       .  S
O257        C270   1.265       .  A
O257       Co265   1.969       .  S
O258        C271   1.255       .  A
O258       Co266   1.974       .  S
O259        C272   1.292       .  A
O259       Co267   2.101   1_556  S
O260        C273   1.273       .  A
O260       Co268   2.033   1_556  S
O261        C273   1.259       .  A
O261       Co266   1.965       .  S
O262        C272   1.263       .  A
O262       Co265   1.890       .  S
O263        C270   1.276       .  A
O263       Co268   2.027   1_556  S
O264        C271   1.261       .  A
O264       Co267   2.006   1_556  S
Co265       O269   2.013   1_556  S
Co266       O269   2.033   1_556  S
Co267       O269   2.011       .  S
Co268       O269   2.036       .  S
C270        C310   1.435       .  S
C271        C311   1.434       .  S
C272        C304   1.428       .  S
C273        C302   1.443       .  S
C274        C308   1.439       .  S
C274        C275   1.399       .  A
C274        C619   1.402       .  A
C275        C616   1.401       .  A
C275        H280   1.085       .  S
C276        C323   1.439       .  S
C276        C615   1.402       .  A
C276        C277   1.401       .  A
C277        C278   1.401       .  A
C277        H281   1.085       .  S
C278        C306   1.439       .  S
C278        C279   1.402       .  A
C279        C614   1.402       .  A
C279        H282   1.085       .  S
C283        C303   1.433       .  S
C283        C284   1.399       .  A
C283        C288   1.397       .  A
C284        C285   1.401       .  A
C284        H289   1.085       .  S
C285        C319   1.436       .  S
C286        C287   1.405       .  A
C286        H290   1.084       .  S
C287        C301   1.448       .  S
C288        H291   1.085       .  S
C292        C312   1.441       .  S
C292        C293   1.402       .  A
C292        C637   1.402   1_455  A
C293        C634   1.402   1_455  A
C293        H298   1.085       .  S
C294        C318   1.440       .  S
C294        C633   1.401       .  A
C294        C295   1.402       .  A
C295        C296   1.401       .  A
C295        H299   1.084       .  S
C296        C309   1.442       .  S
C296        C297   1.402       .  A
C297        C632   1.402       .  A
C297        H300   1.085       .  S
C301        C302   1.211       .  T
C303        C304   1.202       .  T
C305        C306   1.205       .  T
C307        C308   1.205       .  T
C309        C310   1.207       .  T
C311        C312   1.206       .  T
C313        C314   1.207       .  T
C315        C316   1.212       .  T
C317        C318   1.206       .  T
C319        C320   1.204       .  T
C321        C322   1.210       .  T
C323        C324   1.206       .  T
C325        C326   1.204       .  T
C326        C536   1.432       .  S
C327        C328   1.206       .  T
C329        C330   1.204       .  T
C330        C522   1.431       .  S
C331        C332   1.207       .  T
C333        C334   1.204       .  T
C335        C336   1.205       .  T
C339        C340   1.208       .  T
O341        C349   1.259       .  A
O341       Co361   2.005       .  S
O342        C350   1.277       .  A
O342       Co362   2.030       .  S
O343        C351   1.258   1_655  A
O343       Co363   1.961       .  S
O344        C352   1.262       .  A
O344       Co364   1.892       .  S
O345       Co362   2.022       .  S
O346       Co361   2.102       .  S
O347        C520   1.265       .  A
O347       Co364   1.968       .  S
O348        C519   1.254   1_545  A
O348       Co363   1.973       .  S
C349        O518   1.254       .  A
C349        C509   1.434       .  S
C350        O517   1.266   1_545  A
C350        C508   1.435       .  S
C351        C502   1.436       .  S
O353       Co361   1.892       .  S
O354       Co362   1.961       .  S
O355        C538   1.277       .  A
O355       Co363   2.032       .  S
O356        C539   1.259       .  A
O356       Co364   2.004       .  S
O357        C369   1.255   1_545  A
O357       Co362   1.975       .  S
O358        C368   1.265       .  A
O358       Co361   1.968       .  S
O359        C366   1.293       .  A
O359       Co364   2.101       .  S
O360        C367   1.271       .  A
O360       Co363   2.022       .  S
Co361       O365   2.010       .  S
Co363       O535   2.033       .  S
O365       Co533   2.034       .  S
C367        C498   1.432       .  S
C368        O525   1.277       .  A
C368        C506   1.436       .  S
C369        O526   1.260       .  A
C369        C674   1.435       .  S
C370        C501   1.442       .  S
C370        C371   1.403       .  A
C370        C375   1.400       .  A
C371        C372   1.404       .  A
C371        H376   1.084       .  S
C372        C494   1.439       .  S
C372        C373   1.402       .  A
C373        C374   1.400       .  A
C373        H377   1.085       .  S
C374        C499   1.438       .  S
C374        C375   1.400       .  A
C375        H378   1.085       .  S
C379        C510   1.441       .  S
C379        C550   1.402       .  A
C379        C384   1.402       .  A
C380        C549   1.402       .  A
C380        C551   1.402       .  A
C380        H385   1.085       .  S
C381        C507   1.442       .  S
C381        C550   1.402       .  A
C381        C382   1.400       .  A
C382        C383   1.402       .  A
C382        H386   1.084       .  S
C383        C491   1.441       .  S
C383        C384   1.402       .  A
C384        H387   1.085       .  S
C388        C505   1.442       .  S
C388        C559   1.402       .  A
C388        C393   1.401       .  A
C389        C558   1.403       .  A
C389        C560   1.402       .  A
C389        H394   1.085       .  S
C390        C503   1.440       .  S
C390        C559   1.402       .  A
C390        C391   1.401       .  A
C391        C392   1.402       .  A
C391        H395   1.085       .  S
C392        C490   1.440       .  S
C392        C393   1.402       .  A
C393        H396   1.084       .  S
C397        C497   1.438       .  S
C397        C398   1.399       .  A
C397        C402   1.401       .  A
C398        C399   1.399       .  A
C398        H403   1.085       .  S
C399        C495   1.434       .  S
C399        C400   1.397       .  A
C400        C401   1.400       .  A
C400        H404   1.085       .  S
C401        C487   1.433       .  S
C401        C402   1.402       .  A
C402        H405   1.085       .  S
C406        C486   1.438       .  S
C406        C407   1.400       .  A
C406        C411   1.400       .  A
C407        C578   1.399       .  A
C407        H412   1.085       .  S
C408        C484   1.441       .  S
C408        C577   1.399   1_545  A
C408        C409   1.403       .  A
C409        C580   1.404   1_545  A
C409        H413   1.084       .  S
C410        C492   1.441       .  S
C410        C579   1.405       .  A
C410        C411   1.402       .  A
C411        H414   1.085       .  S
O415        C423   1.294       .  A
O415       Co435   2.104   1_554  S
O416        C424   1.273       .  A
O416       Co436   2.028   1_554  S
O417        C425   1.265       .  A
O417       Co437   1.963       .  S
O418        C426   1.255       .  A
O418       Co438   1.974       .  S
O419        C425   1.277       .  A
O419       Co436   2.024   1_554  S
O420        C426   1.260       .  A
O420       Co435   2.005   1_554  S
O421        C424   1.259       .  A
O421       Co438   1.959       .  S
O422        C423   1.263       .  A
O422       Co437   1.892       .  S
C423        C485   1.432       .  S
C424        C483   1.435       .  S
C425        C477   1.429       .  S
C426        C475   1.434       .  S
O427        C440   1.264       .  A
O427       Co435   1.960       .  S
O428        C441   1.253       .  A
O428       Co436   1.970       .  S
O429        C442   1.292       .  A
O429       Co437   2.104   1_556  S
O430        C443   1.272       .  A
O430       Co438   2.028   1_556  S
O431        C443   1.257       .  A
O431       Co436   1.960       .  S
O432        C442   1.262       .  A
O432       Co435   1.896       .  S
O433        C440   1.277       .  A
O433       Co438   2.023   1_556  S
O434        C441   1.260       .  A
O434       Co437   2.002   1_556  S
Co435       O439   2.005   1_556  S
Co436       O439   2.024   1_556  S
Co437       O439   2.005       .  S
Co438       O439   2.028       .  S
C440        C480   1.426       .  S
C441        C481   1.428       .  S
C442        C474   1.433       .  S
C443        C472   1.436       .  S
C444        C478   1.435       .  S
C444        C445   1.399       .  A
C445        H450   1.085       .  S
C446        C493   1.439       .  S
C446        C447   1.402   1_455  A
C447        C448   1.401       .  A
C447        H451   1.085       .  S
C448        C476   1.440       .  S
C448        C449   1.402   1_655  A
C449        H452   1.085       .  S
C453        C473   1.438       .  S
C453        C454   1.400       .  A
C453        C458   1.399       .  A
C454        C455   1.403       .  A
C454        H459   1.085       .  S
C455        C489   1.441       .  S
C455        C626   1.405       .  A
C456        C625   1.405   1_545  A
C456        C457   1.404       .  A
C456        H460   1.084       .  S
C457        C471   1.442       .  S
C457        C628   1.399   1_545  A
C458        C627   1.399       .  A
C458        H461   1.085       .  S
C462        C482   1.434       .  S
C462        C463   1.401       .  A
C463        H468   1.085       .  S
C464        C488   1.432       .  S
C464        C465   1.401       .  A
C465        C466   1.398       .  A
C465        H469   1.085       .  S
C466        C479   1.432       .  S
C466        C467   1.397       .  A
C467        H470   1.085       .  S
C471        C472   1.207       .  T
C473        C474   1.205       .  T
C475        C476   1.206       .  T
C477        C478   1.203       .  T
C479        C480   1.201       .  T
C481        C482   1.202       .  T
C483        C484   1.206       .  T
C485        C486   1.205       .  T
C487        C488   1.202       .  T
C489        C490   1.206       .  T
C491        C492   1.206       .  T
C493        C494   1.206       .  T
C495        C496   1.202       .  T
C497        C498   1.205       .  T
C499        C500   1.205       .  T
C501        C502   1.207       .  T
C503        C504   1.206       .  T
C504        C539   1.434       .  S
C505        C506   1.207       .  T
C507        C678   1.207       .  T
C508        C677   1.207       .  T
C509        C510   1.206       .  T
O511        C519   1.260       .  A
O511       Co531   2.005       .  S
O512        C520   1.277       .  A
O512       Co532   2.030       .  S
O513        C521   1.257   1_655  A
O513       Co533   1.958       .  S
O514        C522   1.263       .  A
O514       Co534   1.894       .  S
O515       Co532   2.028       .  S
O516       Co531   2.100       .  S
O517       Co534   1.967       .  S
O518       Co533   1.975       .  S
C519        C679   1.433       .  S
C520        C678   1.436       .  S
C521        C672   1.435       .  S
O523       Co531   1.895       .  S
O524       Co532   1.959       .  S
O525       Co533   2.030       .  S
O526       Co534   2.005       .  S
O527        C539   1.255       .  A
O527       Co532   1.975       .  S
O528        C538   1.265   1_565  A
O528       Co531   1.968       .  S
O529        C536   1.292       .  A
O529       Co534   2.100       .  S
O530        C537   1.272       .  A
O530       Co533   2.028       .  S
Co531       O535   2.009   1_565  S
C537        C668   1.437       .  S
C538        C676   1.438       .  S
C540        C671   1.440       .  S
C540        C541   1.403       .  A
C540        C545   1.398       .  A
C541        C542   1.405       .  A
C541        H546   1.084       .  S
C542        C664   1.438       .  S
C542        C543   1.401       .  A
C543        C544   1.399       .  A
C543        H547   1.085       .  S
C544        C669   1.435       .  S
C544        C545   1.398       .  A
C545        H548   1.085       .  S
C549        C680   1.440       .  S
C549        C554   1.401       .  A
C550        H555   1.085       .  S
C551        C677   1.441   1_565  S
C551        C552   1.400   1_565  A
C552        C553   1.402   1_545  A
C552        H556   1.084       .  S
C553        C661   1.440       .  S
C553        C554   1.402       .  A
C554        H557   1.085       .  S
C558        C675   1.444   1_565  S
C558        C563   1.401       .  A
C559        H564   1.085       .  S
C560        C673   1.441       .  S
C560        C561   1.402       .  A
C561        C562   1.402       .  A
C561        H565   1.085       .  S
C562        C660   1.441       .  S
C562        C563   1.403       .  A
C563        H566   1.084   1_565  S
C567        C667   1.442       .  S
C567        C568   1.399       .  A
C567        C572   1.403       .  A
C568        C569   1.399       .  A
C568        H573   1.085       .  S
C569        C665   1.438       .  S
C569        C570   1.400       .  A
C570        C571   1.403       .  A
C570        H574   1.085       .  S
C571        C657   1.441       .  S
C571        C572   1.405       .  A
C572        H575   1.084       .  S
C576        C656   1.438       .  S
C576        C577   1.399       .  A
C576        C581   1.400       .  A
C577        H582   1.085       .  S
C578        C654   1.442       .  S
C578        C579   1.404       .  A
C579        H583   1.084       .  S
C580        C662   1.440       .  S
C580        C581   1.402       .  A
C581        H584   1.085       .  S
O585        C593   1.293       .  A
O585       Co605   2.104   1_554  S
O586        C594   1.273       .  A
O586       Co606   2.028   1_554  S
O587        C595   1.266       .  A
O587       Co607   1.967       .  S
O588        C596   1.255       .  A
O588       Co608   1.974       .  S
O589        C595   1.277       .  A
O589       Co606   2.027   1_554  S
O590        C596   1.260       .  A
O590       Co605   2.004   1_554  S
O591        C594   1.258       .  A
O591       Co608   1.960       .  S
O592        C593   1.263       .  A
O592       Co607   1.893       .  S
C593        C655   1.432       .  S
C594        C653   1.437       .  S
C595        C647   1.434       .  S
C596        C645   1.432       .  S
O597        C610   1.266       .  A
O597       Co605   1.968       .  S
O598        C611   1.255       .  A
O598       Co606   1.975       .  S
O599        C612   1.293       .  A
O599       Co607   2.104   1_556  S
O600        C613   1.273       .  A
O600       Co608   2.027   1_556  S
O601        C613   1.258       .  A
O601       Co606   1.960       .  S
O602        C612   1.263       .  A
O602       Co605   1.894       .  S
O603        C610   1.277       .  A
O603       Co608   2.028   1_556  S
O604        C611   1.260       .  A
O604       Co607   2.003   1_556  S
Co605       O609   2.008       .  S
Co606       O609   2.032       .  S
Co607       O609   2.007   1_554  S
Co608       O609   2.031   1_554  S
C610        C650   1.436       .  S
C611        C651   1.433       .  S
C612        C644   1.433       .  S
C613        C642   1.436       .  S
C614        C648   1.441       .  S
C614        C615   1.400       .  A
C615        H620   1.084       .  S
C616        C663   1.438       .  S
C616        C617   1.401   1_455  A
C617        C618   1.401       .  A
C617        H621   1.085       .  S
C618        C646   1.439       .  S
C618        C619   1.402   1_655  A
C619        H622   1.085       .  S
C623        C643   1.438       .  S
C623        C624   1.400       .  A
C623        C628   1.399       .  A
C624        C625   1.403       .  A
C624        H629   1.085       .  S
C625        C659   1.442       .  S
C626        C627   1.403       .  A
C626        H630   1.084       .  S
C627        C641   1.441       .  S
C628        H631   1.085       .  S
C632        C652   1.439       .  S
C632        C633   1.401       .  A
C633        H638   1.085       .  S
C634        C658   1.441       .  S
C634        C635   1.402       .  A
C635        C636   1.400       .  A
C635        H639   1.084       .  S
C636        C649   1.442       .  S
C636        C637   1.402       .  A
C637        H640   1.085       .  S
C641        C642   1.207       .  T
C643        C644   1.205       .  T
C645        C646   1.205       .  T
C647        C648   1.206       .  T
C649        C650   1.207       .  T
C651        C652   1.205       .  T
C653        C654   1.207       .  T
C655        C656   1.204       .  T
C657        C658   1.207       .  T
C659        C660   1.207       .  T
C661        C662   1.206       .  T
C663        C664   1.205       .  T
C665        C666   1.205       .  T
C667        C668   1.207       .  T
C669        C670   1.203       .  T
C671        C672   1.206       .  T
C673        C674   1.206       .  T
C675        C676   1.208       .  T
C679        C680   1.205       .  T
