geometry optimzed in LAMMPS
_audit_creation_date              2020-11-30 
_audit_creation_method            'lammps2cif' 
_symmetry_space_group_name_H-M    'P1' 
_symmetry_Int_Tables_number       1 
_symmetry_cell_setting            triclinic 
loop_ 
_symmetry_equiv_pos_as_xyz 
  x,y,z 
_cell_length_a                    44.96769279 
_cell_length_b                    25.075081609069215 
_cell_length_c                    45.1491370456685 
_cell_angle_alpha                 89.79389037989354 
_cell_angle_beta                  86.77060648905449 
_cell_angle_gamma                 91.83910772759917 
loop_ 
_atom_site_label 
_atom_site_type_symbol 
_atom_site_fract_x 
_atom_site_fract_y 
_atom_site_fract_z 
_atom_site_charge 
C1          C  0.29899297  0.66125461  0.28494129     0.87600
C2          C  0.33159915  0.64582373  0.28738625    -0.52700
C3          C  0.33450262  0.59829599  0.30171002     0.10500
C4          C  0.30464343  0.57066959  0.31194176     0.21400
C5          C  0.28393962  0.61409086  0.26960624    -0.53400
C6          C  0.28689297  0.56669378  0.28384767     0.10600
C7          C  0.28550541  0.66018528  0.31690486    -0.52900
C8          C  0.28852607  0.61273113  0.33091793     0.11200
H9          H  0.35055060  0.67030538  0.27882438     0.15700
H10         H  0.30694745  0.53194896  0.32353024     0.01400
H11         H  0.27168207  0.61788945  0.24967986     0.16000
H12         H  0.27497183  0.69403914  0.32760612     0.15800
C13         C  0.48342658  0.16287884  0.28631723     0.87600
C14         C  0.49250403  0.15946599  0.31860611    -0.52700
C15         C  0.48837848  0.10955496  0.33069964     0.10500
C16         C  0.47591682  0.06780501  0.30938280     0.21400
C17         C  0.50146291  0.12053033  0.26945925    -0.53400
C18         C  0.49751862  0.07059425  0.28154251     0.10600
C19         C  0.45115064  0.14187745  0.28724871    -0.52900
C20         C  0.44721263  0.09242430  0.29950745     0.11200
H21         H  0.50050845  0.19358609  0.33098912     0.15700
H22         H  0.47247658  0.02722590  0.31921882     0.01400
H23         H  0.01573155  0.12909157  0.24968271     0.16000
H24         H  0.43287790  0.16453425  0.27946683     0.15800
C25         C  0.05652904  0.66266844  0.49518839     0.87600
C26         C  0.04438786  0.65992069  0.46412117    -0.52700
C27         C  0.04581494  0.61056974  0.45175372     0.10500
C28         C  0.05959324  0.56857362  0.47135332     0.21400
C29         C  0.03873493  0.61910494  0.51329555    -0.53400
C30         C  0.04032607  0.56969004  0.50063929     0.10600
C31         C  0.08821377  0.64288842  0.49148746    -0.52900
C32         C  0.08993036  0.59375916  0.47902682     0.11200
H33         H  0.03525290  0.69376180  0.45304435     0.16900
H34         H  0.06099107  0.52838595  0.46115759     0.01400
H35         H  0.02577303  0.62672692  0.03378797     0.16000
H36         H  0.10763711  0.66555322  0.49836514     0.15800
C37         C  0.23301946  0.33652214  0.25095167     0.87600
C38         C  0.24519005  0.34056175  0.21848708    -0.52700
C39         C  0.24219257  0.38973462  0.20623947     0.10500
C40         C  0.22735502  0.43012240  0.22733521     0.21400
C41         C  0.24934728  0.38139727  0.26707465    -0.53400
C42         C  0.24637431  0.43036635  0.25457140     0.10600
C43         C  0.20056261  0.35345277  0.25053584    -0.52900
C44         C  0.19767949  0.40249740  0.23804463     0.11200
H45         H  0.25505609  0.30762355  0.20631122     0.15700
H46         H  0.22493505  0.47016687  0.21726040     0.01400
H47         H  0.26236111  0.37500497  0.28626016     0.16000
H48         H  0.18164619  0.32883201  0.25907315     0.15800
C49         C  0.30508097  0.84941183  0.03105584     0.87600
C50         C  0.29453252  0.84712607  0.06395334    -0.52700
C51         C  0.29450576  0.89571724  0.07720422     0.10500
C52         C  0.30514843  0.94219602  0.05669996     0.21400
C53         C  0.28491057  0.88951847  0.01683729    -0.53400
C54         C  0.28537778  0.93814194  0.03040128     0.10600
C55         C  0.33602988  0.87789625  0.03020054    -0.52900
C56         C  0.33568915  0.92699494  0.04344109     0.11200
H57         H  0.28753566  0.81047700  0.07564358     0.15700
H58         H  0.30513155  0.98191212  0.06760024     0.01400
H59         H  0.27267025  0.88116202  0.99722265     0.16000
H60         H  0.35584791  0.86201669  0.01905108     0.15800
C61         C  0.47646435  0.34524017  0.04003982     0.87600
C62         C  0.44512235  0.36655749  0.04510724    -0.52700
C63         C  0.44462116  0.41551345  0.05805378     0.10500
C64         C  0.47556799  0.43893340  0.06470166     0.21400
C65         C  0.49424929  0.38868299  0.02176413    -0.53400
C66         C  0.49380664  0.43779757  0.03487968     0.10600
C67         C  0.48974935  0.34665929  0.07067501    -0.52900
C68         C  0.48934696  0.39586653  0.08340730     0.11200
H69         H  0.42509281  0.34502303  0.03884162     0.15700
H70         H  0.47510916  0.47890238  0.07526693     0.01400
H71         H  0.00644651  0.38114070  0.00082704     0.16000
H72         H  0.49868752  0.31209960  0.08124016     0.15800
C73         C  0.23543349  0.16465547  0.49680010     0.87600
C74         C  0.20340973  0.14126512  0.50080906    -0.52700
C75         C  0.20028235  0.09133482  0.48914852     0.10500
C76         C  0.22879821  0.07006451  0.47423274     0.21400
C77         C  0.25478920  0.12271735  0.01058587    -0.53400
C78         C  0.25090281  0.07317550  0.49861226     0.10600
C79         C  0.24337726  0.16270038  0.46331252    -0.52900
C80         C  0.23992414  0.11301825  0.45167622     0.11200
H81         H  0.18529443  0.16134516  0.51260785     0.15700
H82         H  0.22596184  0.02953083  0.46465111     0.01400
H83         H  0.26917144  0.13085868  0.02868662     0.16000
H84         H  0.25126284  0.19719159  0.45012766     0.15800
C85         C  0.04755206  0.84415654  0.24113953     0.87600
C86         C  0.08047022  0.86184499  0.23968850    -0.52700
C87         C  0.08586783  0.91068681  0.22692588     0.10500
C88         C  0.05789264  0.93796308  0.21716803     0.21400
C89         C  0.03114661  0.88878132  0.25777545    -0.53400
C90         C  0.03658345  0.93806704  0.24521666     0.10600
C91         C  0.03823867  0.84776747  0.20903683    -0.52900
C92         C  0.04384867  0.89685752  0.19648962     0.11200
H93         H  0.09803592  0.83745639  0.24746494     0.15700
H94         H  0.06246995  0.97792483  0.20686176     0.01400
H95         H  0.01668251  0.88210167  0.27762035     0.16000
H96         H  0.02895129  0.81421903  0.19705510     0.15800
Zr97       Zr  0.47342189  0.06105252  0.49113931     2.17500
O98         O  0.43249231  0.08677340  0.46140435    -0.50300
O99         O  0.47110095  0.15667749  0.00344719    -0.73500
O100        O  0.42369466  0.03528100  0.01388008    -0.80200
O101        O  0.02831604  0.05844822  0.42193357    -0.82000
O102        O  0.42904771  0.99654802  0.05891329    -0.77600
O103        O  0.48058819  0.07599468  0.43737789    -0.89300
O104        O  0.50973608  0.17957434  0.03167531    -0.75200
O105        O  0.48618036  0.07077030  0.04148188    -0.84700
O106        O  0.02408241  0.09298033  0.48946256    -0.84400
O107        O  0.46860452  0.97208948  0.01194255    -0.71200
O108        O  0.00232993  0.99508277  0.46479305    -0.83300
Zr109      Zr  0.06061328  0.94845518  0.03704051     2.26400
Zr110      Zr  0.48149549  0.98275016  0.06253719     2.06300
Zr111      Zr  0.05296251  0.02618807  0.46445160     2.10000
Zr112      Zr  0.03703412  0.10116134  0.03975592     1.78800
O113        O  0.07056676  0.96628722  0.42536653    -0.92100
O114        O  0.02409547  0.13530193  0.08911139    -0.39900
O115        O  0.06521623  0.03517046  0.01480786    -0.76500
O116        O  0.03208048  0.01544511  0.06302171    -0.95200
O117        O  0.01029847  0.91607723  0.03751577    -0.88500
O118        O  0.04905705  0.93869783  0.48617546    -0.91400
C119        C  0.48667729  0.19049897  0.01798858     1.02400
C120        C  0.50202341  0.07347398  0.41735456     1.15300
C121        C  0.41333284  0.01202794  0.03799221     1.06100
O122        O  0.46698245  0.03818625  0.10477009    -0.93500
O123        O  0.00385936  0.94538373  0.10505647    -0.89300
O124        O  0.05211893  0.93024232  0.09044784    -0.82400
C125        C  0.03017168  0.93087537  0.10997775     1.12700
O126        O  0.45836069  0.89606827  0.45287684    -0.95500
Zr127      Zr  0.99828800  0.90812148  0.48690084     1.88900
O128        O  0.06250922  0.85282466  0.02584983    -0.72100
O129        O  0.45322445  0.90320412  0.08027529    -0.51400
O130        O  0.45882601  0.84924989  0.00906792    -0.96100
O131        O  0.01409290  0.86960403  0.43922020    -0.53300
O132        O  0.02283392  0.82857365  0.49932417    -0.72700
C133        C  0.04598521  0.81821855  0.01301603     0.99700
O134        O  0.10576463  0.91986746  0.05917040    -0.61500
O135        O  0.08193979  0.10088502  0.44160300    -0.56300
O136        O  0.10943846  0.98693609  0.01894101    -0.93000
O137        O  0.10514529  0.02694076  0.47404705    -0.91400
O138        O  0.07438285  0.16295632  0.01656288    -0.91700
O139        O  0.08002272  0.11604778  0.06954799    -0.90500
C140        C  0.12015956  0.01294028  0.49585099     1.18500
H141        H  0.02646564  0.12670492  0.47907729     0.34500
H142        H  0.03815220  0.02146018  0.08292050     0.45300
H143        H  0.06242085  0.91443956  0.47603737     0.38900
H144        H  0.44913359  0.95555604  0.01046277     0.35300
H145        H  0.03114230  0.17313195  0.08847220     0.27100
H146        H  0.43912519  0.91596680  0.09612256     0.33100
H147        H  0.46340043  0.81316658  0.50162850     0.39000
H148        H  0.07050161  0.19777175  0.02606665     0.33400
H149        H  0.08609394  0.09026370  0.42072792     0.32300
H150        H  0.09067868  0.98072032  0.41900198     0.34000
H151        H  0.00799439  0.83135485  0.44087962     0.33000
H152        H  0.09104419  0.08255579  0.06776307     0.36900
H153        H  0.10875100  0.94442758  0.07598050     0.29700
H154        H  0.41940566  0.10852132  0.47455180     0.33900
H155        H  0.45493297  0.85705023  0.45101819     0.36800
H156        H  0.06792171  0.13043035  0.44055818     0.29400
H157        H  0.10046965  0.88486239  0.06854878     0.42200
H158        H  0.45535477  0.06698600  0.09645147     0.32300
H159        H  0.50209196  0.13691052  0.09013594     0.39900
H160        H  0.03611348  0.86974716  0.43879656     0.31800
H161        H  0.44053973  0.89289362  0.06385852     0.31800
H162        H  0.42075880  0.05344601  0.45799788     0.32100
Zr163      Zr  0.28921268  0.08024411  0.29546839     2.17500
O164        O  0.32138272  0.15591007  0.30827357    -0.50300
O165        O  0.27375224  0.08925721  0.34780554    -0.73500
O166        O  0.26703223  0.16609249  0.28559115    -0.80200
O167        O  0.35695273  0.98796541  0.29365347    -0.82000
O168        O  0.22288541  0.15085655  0.26429187    -0.77600
O169        O  0.34265977  0.07335968  0.30127556    -0.89300
O170        O  0.24099001  0.02170535  0.36169085    -0.75200
O171        O  0.23810424  0.05258466  0.30169225    -0.84700
O172        O  0.28845262  0.99136483  0.31453204    -0.84400
O173        O  0.27082721  0.08595449  0.24652899    -0.71200
O174        O  0.31614130  0.02851849  0.25898280    -0.83300
Zr175      Zr  0.24366353  0.91583095  0.23484583     2.26400
Zr176      Zr  0.21959681  0.05662349  0.25304831     2.06300
Zr177      Zr  0.31396189  0.93903241  0.27742159     2.10000
Zr178      Zr  0.23746083  0.96318501  0.31976322     1.78800
O179        O  0.35779433  0.91285227  0.24749300    -0.92100
O180        O  0.18601917  0.97613192  0.33739734    -0.39900
O181        O  0.26290189  0.91004479  0.28327550    -0.76500
O182        O  0.21697568  0.96699823  0.27223262    -0.95200
O183        O  0.24537234  0.00470292  0.21590594    -0.88500
O184        O  0.29502651  0.94247008  0.22906967    -0.91400
C185        C  0.25587170  0.06465218  0.36671595     1.02400
C186        C  0.36211087  0.03687304  0.30003611     1.15300
C187        C  0.24295350  0.18166648  0.27472676     1.06100
O188        O  0.17397986  0.08264668  0.28010522    -0.93500
O189        O  0.17702351  0.01024542  0.23378834    -0.89300
O190        O  0.19100650  0.92505079  0.22488164    -0.82400
C191        C  0.17180450  0.96197294  0.22604740     1.12700
O192        O  0.32778040  0.11210566  0.20095551    -0.95500
Zr193      Zr  0.29668944  0.03182410  0.21093350     1.88900
O194        O  0.25820958  0.90829823  0.18201158    -0.72100
O195        O  0.20939394  0.10273009  0.20733284    -0.51400
O196        O  0.27570880  0.08957024  0.17450308    -0.96100
O197        O  0.34769429  0.01204665  0.19430599    -0.53300
O198        O  0.29085506  0.97622104  0.16829643    -0.72700
C199        C  0.27560306  0.93386540  0.16299403     0.99700
O200        O  0.21802634  0.83109786  0.22461864    -0.61500
O201        O  0.32757739  0.89174927  0.32170458    -0.56300
O202        O  0.26397363  0.82999616  0.24783124    -0.93000
O203        O  0.30842152  0.84458062  0.26870420    -0.91400
O204        O  0.25964045  0.90836850  0.35671664    -0.91700
O205        O  0.20823551  0.88111846  0.32996229    -0.90500
C206        C  0.28786660  0.81409536  0.25895477     1.18500
H207        H  0.29790197  0.99003766  0.33319522     0.34500
H208        H  0.19664963  0.95415860  0.27576578     0.45300
H209        H  0.30590226  0.91881881  0.21584735     0.38900
H210        H  0.27279665  0.12154444  0.23831152     0.35300
H211        H  0.18596414  0.97206947  0.35922500     0.27100
H212        H  0.18962085  0.11824198  0.21144578     0.33100
H213        H  0.28609854  0.08067897  0.15531929     0.39000
H214        H  0.24637926  0.91167678  0.37483313     0.33400
H215        H  0.34590151  0.87299842  0.31538768     0.32300
H216        H  0.36966009  0.89268645  0.26127843     0.34000
H217        H  0.34732398  0.97331148  0.19013766     0.33000
H218        H  0.20565601  0.86524679  0.31018307     0.36900
H219        H  0.20064383  0.82829341  0.23908696     0.29700
H220        H  0.30931362  0.17735791  0.32254260     0.33900
H221        H  0.33422667  0.11059611  0.17964102     0.36800
H222        H  0.33441992  0.91973011  0.33539035     0.29400
H223        H  0.20950016  0.83547868  0.20504040     0.42200
H224        H  0.18037305  0.09474209  0.29967618     0.32300
H225        H  0.18287597  0.01455548  0.33417550     0.39900
H226        H  0.35923020  0.01576348  0.21227232     0.31800
H227        H  0.22352543  0.13386771  0.20614887     0.31800
H228        H  0.32401847  0.17817118  0.29009252     0.32100
Zr229      Zr  0.28985884  0.42489572  0.04835207     2.17500
O230        O  0.31350477  0.34073339  0.05802204    -0.50300
O231        O  0.27570522  0.41314455  0.10115075    -0.73500
O232        O  0.34256069  0.43630577  0.05851910    -0.80200
O233        O  0.22540694  0.35053653  0.01154713    -0.82000
O234        O  0.35819134  0.52291820  0.05165274    -0.77600
O235        O  0.26913755  0.33837615  0.03332574    -0.89300
O236        O  0.24680540  0.48140582  0.11673545    -0.75200
O237        O  0.29051192  0.51314994  0.06781218    -0.84700
O238        O  0.23896159  0.44823398  0.05545666    -0.84400
O239        O  0.31753787  0.47877132  0.01123295    -0.71200
O240        O  0.26992913  0.42087078  0.50017015    -0.83300
Zr241      Zr  0.24637145  0.58947947  0.99030895     2.26400
Zr242      Zr  0.31713863  0.56774024  0.03066863     2.06300
Zr243      Zr  0.21925938  0.44590011  0.00731412     2.10000
Zr244      Zr  0.23963360  0.53683428  0.07420620     1.78800
O245        O  0.20075361  0.40212956  0.46360276    -0.92100
O246        O  0.25843702  0.59688671  0.11168381    -0.39900
O247        O  0.21872780  0.53470638  0.02667467    -0.76500
O248        O  0.26640355  0.59321861  0.03862860    -0.95200
O249        O  0.29709295  0.56558277  0.48270265    -0.88500
O250        O  0.24555665  0.50132963  0.47063320    -0.91400
C251        C  0.26032950  0.43829206  0.12108332     1.02400
C252        C  0.24564022  0.32106875  0.02103188     1.15300
C253        C  0.36242721  0.47425149  0.05856106     1.06100
O254        O  0.33442238  0.61984821  0.07206184    -0.93500
O255        O  0.31455427  0.66272443  0.02039838    -0.89300
O256        O  0.27168366  0.67614509  0.99721655    -0.82400
C257        C  0.29580218  0.69278935  0.00869043     1.12700
O258        O  0.32934370  0.40333823  0.45379229    -0.95500
Zr259      Zr  0.29620313  0.47697851  0.46399259     1.88900
O260        O  0.25732510  0.59882610  0.43699506    -0.72100
O261        O  0.36105555  0.58971889  0.99831290    -0.51400
O262        O  0.34543848  0.50881266  0.44492634    -0.96100
O263        O  0.27660002  0.41271601  0.42908009    -0.53300
O264        O  0.28698106  0.53131675  0.42160970    -0.72700
C265        C  0.27248509  0.57329680  0.41708701     0.99700
O266        O  0.22068680  0.67357301  0.98798735    -0.61500
O267        O  0.17578618  0.41683192  0.03864895    -0.56300
O268        O  0.19336032  0.57833190  0.48118097    -0.93000
O269        O  0.17743442  0.49233457  0.48977918    -0.91400
O270        O  0.18915422  0.50957012  0.09161838    -0.91700
O271        O  0.20885970  0.61390938  0.08344520    -0.90500
C272        C  0.17329505  0.54060881  0.48223634     1.18500
H273        H  0.22796935  0.42369422  0.06880478     0.34500
H274        H  0.26543397  0.62871727  0.04669217     0.45300
H275        H  0.23554907  0.49975083  0.45227654     0.38900
H276        H  0.33762294  0.46694731  0.00759337     0.35300
H277        H  0.24422758  0.59199752  0.12912645     0.27100
H278        H  0.37408020  0.61173073  0.01074639     0.33100
H279        H  0.34504595  0.50595785  0.42307954     0.39000
H280        H  0.18824265  0.51690734  0.11317797     0.33400
H281        H  0.16147918  0.40211706  0.02468289     0.32300
H282        H  0.18223059  0.38270515  0.47087841     0.34000
H283        H  0.26029687  0.43098677  0.41974160     0.33000
H284        H  0.20483559  0.62725879  0.06344164     0.36900
H285        H  0.21127971  0.67373282  0.96867607     0.29700
H286        H  0.32146875  0.34431726  0.07794832     0.33900
H287        H  0.33529956  0.40588953  0.43236540     0.36800
H288        H  0.18210198  0.38526916  0.04962780     0.29400
H289        H  0.20392978  0.67074878  0.00317564     0.42200
H290        H  0.32762882  0.59885691  0.08992724     0.32300
H291        H  0.27692983  0.58066227  0.11778217     0.39900
H292        H  0.26632783  0.38466917  0.44172009     0.31800
H293        H  0.37148267  0.55575907  0.99564376     0.31800
H294        H  0.33128142  0.33971912  0.04406506     0.32100
Zr295      Zr  0.49382527  0.58418520  0.29971607     2.17500
O296        O  0.47212631  0.66681678  0.31788258    -0.50300
O297        O  0.00691452  0.59181385  0.35179420    -0.73500
O298        O  0.43927379  0.57763970  0.30810433    -0.80200
O299        O  0.05980727  0.65950826  0.25795137    -0.82000
O300        O  0.42228361  0.49359532  0.29781395    -0.77600
O301        O  0.01441230  0.67029477  0.28178580    -0.89300
O302        O  0.03608532  0.52331873  0.36333089    -0.75200
O303        O  0.49037131  0.49435743  0.31731196    -0.84700
O304        O  0.04420331  0.55830051  0.30328609    -0.84400
O305        O  0.46875880  0.53502843  0.26196118    -0.71200
O306        O  0.01774574  0.59114083  0.25085817    -0.83300
Zr307      Zr  0.03884922  0.42313525  0.23535591     2.26400
Zr308      Zr  0.46565868  0.44452276  0.27986598     2.06300
Zr309      Zr  0.06767591  0.56384771  0.25432037     2.10000
Zr310      Zr  0.04076495  0.46817469  0.32023337     1.78800
O311        O  0.09057787  0.60343309  0.20888348    -0.92100
O312        O  0.01649728  0.41086314  0.35873733    -0.39900
O313        O  0.06447175  0.47354212  0.27169070    -0.76500
O314        O  0.01564284  0.41663257  0.28483542    -0.95200
O315        O  0.48916481  0.45093792  0.23096056    -0.88500
O316        O  0.04339846  0.51274668  0.21717095    -0.91400
C317        C  0.02269886  0.56619583  0.36962584     1.02400
C318        C  0.03843065  0.68832476  0.26804319     1.15300
C319        C  0.41827082  0.54212904  0.30567963     1.06100
O320        O  0.44368361  0.39768898  0.32350633    -0.93500
O321        O  0.47003584  0.34871492  0.27139317    -0.89300
O322        O  0.01526210  0.33639588  0.24745436    -0.82400
C323        C  0.49062758  0.31910490  0.26027036     1.12700
O324        O  0.46796743  0.62423626  0.20724293    -0.95500
Zr325      Zr  0.49358484  0.54109200  0.21394875     1.88900
O326        O  0.02790627  0.41709355  0.18295315    -0.72100
O327        O  0.42554789  0.41644082  0.24877596    -0.51400
O328        O  0.44328061  0.52468532  0.19783249    -0.96100
O329        O  0.01957380  0.59943374  0.17693926    -0.53300
O330        O  0.99802773  0.48445306  0.17130237    -0.72700
C331        C  0.01186097  0.44192859  0.16513700     0.99700
O332        O  0.06151403  0.34168581  0.21660719    -0.61500
O333        O  0.10810453  0.59780418  0.28353839    -0.56300
O334        O  0.09342157  0.42726480  0.23281401    -0.93000
O335        O  0.11105375  0.51140544  0.24175730    -0.91400
O336        O  0.09212424  0.48367749  0.33337777    -0.91700
O337        O  0.06644326  0.38542890  0.32765399    -0.90500
C338        C  0.11465332  0.46205422  0.23561845     1.18500
H339        H  0.05489359  0.58120825  0.31646341     0.34500
H340        H  0.01620769  0.38159154  0.29354527     0.45300
H341        H  0.05456214  0.51468742  0.19829686     0.38900
H342        H  0.44951904  0.54864409  0.25824165     0.35300
H343        H  0.03031848  0.41143062  0.37507361     0.27100
H344        H  0.41004173  0.40024123  0.26276612     0.33100
H345        H  0.44472341  0.53127926  0.17615478     0.39000
H346        H  0.09150325  0.47992859  0.35524740     0.33400
H347        H  0.12309537  0.61319479  0.26873875     0.32300
H348        H  0.10315085  0.63370787  0.21557353     0.34000
H349        H  0.53082531  0.57548025  0.16335665     0.33000
H350        H  0.07428100  0.37545685  0.30757130     0.36900
H351        H  0.07442501  0.35251800  0.19901495     0.29700
H352        H  0.46071421  0.65740334  0.33664721     0.33900
H353        H  0.46407570  0.62607703  0.18589746     0.36800
H354        H  0.10013300  0.62908408  0.29427975     0.29400
H355        H  0.07537346  0.33061832  0.23164648     0.42200
H356        H  0.44460930  0.42395898  0.33977442     0.32300
H357        H  0.99919452  0.43095196  0.36655984     0.39900
H358        H  0.03503111  0.61874957  0.18786027     0.31800
H359        H  0.41696698  0.45006083  0.24217320     0.31800
H360        H  0.45688412  0.67586438  0.30379845     0.32100
C361        C  0.11568828  0.93260305  0.22218522    -0.12200
C362        C  0.14149780  0.94706162  0.22126313    -0.13800
C363        C  0.04268052  0.79058848  0.25405866    -0.12200
C364        C  0.04068824  0.74454280  0.26192956    -0.13800
C365        C  0.03560583  0.91676171  0.13997559    -0.12200
C366        C  0.03927536  0.90751762  0.16571669    -0.13800
C367        C  0.24223531  0.26465919  0.01616994    -0.12200
C368        C  0.23916936  0.21855730  0.50901455    -0.13800
C369        C  0.24689754  0.10101906  0.42099284    -0.12200
C370        C  0.25189612  0.08661140  0.39584840    -0.13800
C371        C  0.17335476  0.05893929  0.49285646    -0.12200
C372        C  0.15022054  0.03339638  0.49523584    -0.13800
C373        C  0.50795271  0.42029970  0.13623666    -0.12200
C374        C  0.50070915  0.40684362  0.11201842    -0.13800
C375        C  0.39227665  0.45981115  0.06398739    -0.12200
C376        C  0.41702627  0.44253555  0.06349194    -0.13800
C377        C  0.47650748  0.29164782  0.02681391    -0.12200
C378        C  0.47840027  0.24528171  0.01998720    -0.13800
C379        C  0.26338413  0.02589898  0.00986204    -0.12200
C380        C  0.27241437  0.98465748  0.01880115    -0.13800
C381        C  0.28508082  0.90314752  0.10783812    -0.12200
C382        C  0.27898895  0.91392720  0.13337529    -0.13800
C383        C  0.30429028  0.79605295  0.01744589    -0.12200
C384        C  0.30122043  0.74957775  0.01080419    -0.13800
C385        C  0.38290470  0.99304802  0.03998145    -0.12200
C386        C  0.36072631  0.96458867  0.04180210    -0.13800
C387        C  0.23625746  0.28346562  0.26393286    -0.12200
C388        C  0.23919081  0.23785726  0.27144352    -0.13800
C389        C  0.14454036  0.44337919  0.23376963    -0.12200
C390        C  0.16906882  0.42564975  0.23493188    -0.13800
C391        C  0.25139935  0.40253925  0.17588044    -0.12200
C392        C  0.25712464  0.41652815  0.15056531    -0.13800
C393        C  0.02412353  0.52309193  0.01288824    -0.12200
C394        C  0.01030458  0.48410294  0.02265627    -0.13800
C395        C  0.11822395  0.56859201  0.47525869    -0.12200
C396        C  0.14344577  0.55405685  0.47623274    -0.13800
C397        C  0.02708827  0.58703157  0.39866700    -0.12200
C398        C  0.03476957  0.59901589  0.42300402    -0.13800
C399        C  0.05550049  0.71645767  0.50765520    -0.12200
C400        C  0.05351641  0.76325118  0.01299792    -0.13800
C401        C  0.01178974  0.02443750  0.26857408    -0.12200
C402        C  0.02338618  0.98571638  0.25759106    -0.13800
C403        C  0.48753771  0.26272138  0.26544411    -0.12200
C404        C  0.48648632  0.21678503  0.27352063    -0.13800
C405        C  0.41802300  0.06785394  0.30362093    -0.12200
C406        C  0.39240638  0.05251915  0.30413692    -0.13800
C407        C  0.49632866  0.08767415  0.38728058    -0.12200
C408        C  0.49285509  0.09811378  0.36155262    -0.13800
C409        C  0.27312611  0.51782049  0.27396480    -0.12200
C410        C  0.26091931  0.47782759  0.26534045    -0.13800
C411        C  0.29147202  0.75795433  0.26260161    -0.12200
C412        C  0.29528828  0.71282717  0.27043502    -0.13800
C413        C  0.38800166  0.55960651  0.30869522    -0.12200
C414        C  0.36324318  0.57643496  0.30679185    -0.13800
C415        C  0.27906821  0.60379504  0.36148215    -0.12200
C416        C  0.27402129  0.59278932  0.38725022    -0.13800
C417        C  0.29899293  0.66125503  0.78494138     0.87600
C418        C  0.33159904  0.64582389  0.78738648    -0.52700
C419        C  0.33450231  0.59829626  0.80171045     0.10500
C420        C  0.30464303  0.57067013  0.81194210     0.21400
C421        C  0.28393955  0.61409122  0.76960636    -0.53400
C422        C  0.28689275  0.56669414  0.78384788     0.10600
C423        C  0.28550524  0.66018609  0.81690490    -0.52900
C424        C  0.28852571  0.61273198  0.83091807     0.11200
H425        H  0.35055056  0.67030526  0.77882451     0.15700
H426        H  0.30694694  0.53194957  0.82353071     0.01400
H427        H  0.27168227  0.61788975  0.74967979     0.16000
H428        H  0.27497172  0.69404012  0.82760608     0.15800
C429        C  0.48342646  0.16287972  0.78631767     0.87600
C430        C  0.49250417  0.15946673  0.81860643    -0.52700
C431        C  0.48837870  0.10955568  0.83069990     0.10500
C432        C  0.47591691  0.06780581  0.80938308     0.21400
C433        C  0.50146272  0.12053140  0.76945949    -0.53400
C434        C  0.49751860  0.07059528  0.78154271     0.10600
C435        C  0.45115057  0.14187842  0.78724934    -0.52900
C436        C  0.44721265  0.09242519  0.79950791     0.11200
H437        H  0.50050861  0.19358674  0.83098947     0.15700
H438        H  0.47247670  0.02722664  0.81921901     0.01400
H439        H  0.01573157  0.12909098  0.74968221     0.16000
H440        H  0.43287780  0.16453529  0.77946758     0.15800
C441        C  0.05652903  0.66266821  0.99518873     0.87600
C442        C  0.04438828  0.65992032  0.96412130    -0.52700
C443        C  0.04581539  0.61056931  0.95175396     0.10500
C444        C  0.05959332  0.56857328  0.97135386     0.21400
C445        C  0.03873462  0.61910495  0.01329574    -0.53400
C446        C  0.04032577  0.56969001  0.00063957     0.10600
C447        C  0.08821374  0.64288800  0.99148829    -0.52900
C448        C  0.08993037  0.59375872  0.97902772     0.11200
H449        H  0.03525348  0.69376135  0.95304430     0.16900
H450        H  0.06099120  0.52838555  0.96115825     0.01400
H451        H  0.02577353  0.62672667  0.53378793     0.16000
H452        H  0.10763704  0.66555277  0.99836613     0.15800
C453        C  0.23301928  0.33652187  0.75095174     0.87600
C454        C  0.24518877  0.34056070  0.71848681    -0.52700
C455        C  0.24219151  0.38973362  0.70623920     0.10500
C456        C  0.22735514  0.43012222  0.72733526     0.21400
C457        C  0.24934825  0.38139663  0.76707398    -0.53400
C458        C  0.24637531  0.43036582  0.75457081     0.10600
C459        C  0.20056262  0.35345374  0.75053698    -0.52900
C460        C  0.19767967  0.40249833  0.73804572     0.11200
H461        H  0.25505409  0.30762199  0.70631080     0.15700
H462        H  0.22493525  0.47016667  0.71726042     0.01400
H463        H  0.26236251  0.37500407  0.78625915     0.16000
H464        H  0.18164616  0.32883364  0.75907481     0.15800
C465        C  0.30508128  0.84941162  0.53105572     0.87600
C466        C  0.29453318  0.84712593  0.56395331    -0.52700
C467        C  0.29450654  0.89571711  0.57720416     0.10500
C468        C  0.30514900  0.94219583  0.55669978     0.21400
C469        C  0.28491071  0.88951823  0.51683736    -0.53400
C470        C  0.28537810  0.93814173  0.53040130     0.10600
C471        C  0.33603018  0.87789596  0.53020009    -0.52900
C472        C  0.33568956  0.92699462  0.54344066     0.11200
H473        H  0.28753640  0.81047689  0.57564361     0.15700
H474        H  0.30513232  0.98191195  0.56760001     0.01400
H475        H  0.27267009  0.88116176  0.49722293     0.16000
H476        H  0.35584812  0.86201625  0.51905053     0.15800
C477        C  0.47646394  0.34523945  0.54003996     0.87600
C478        C  0.44512202  0.36655702  0.54510774    -0.52700
C479        C  0.44462105  0.41551310  0.55805415     0.10500
C480        C  0.47556803  0.43893300  0.56470152     0.21400
C481        C  0.49424866  0.38868211  0.52176388    -0.53400
C482        C  0.49380622  0.43779686  0.53487931     0.10600
C483        C  0.48974948  0.34665897  0.57067494    -0.52900
C484        C  0.48934734  0.39586635  0.58340707     0.11200
H485        H  0.42509237  0.34502255  0.53884242     0.15700
H486        H  0.47510937  0.47890211  0.57526666     0.01400
H487        H  0.00644726  0.38114036  0.50082737     0.16000
H488        H  0.49868784  0.31209938  0.58124005     0.15800
C489        C  0.23543357  0.16465583  0.99679968     0.87600
C490        C  0.20340985  0.14126549  0.00080912    -0.52700
C491        C  0.20028229  0.09133519  0.98914863     0.10500
C492        C  0.22879802  0.07006478  0.97423257     0.21400
C493        C  0.25478891  0.12271686  0.51058648    -0.53400
C494        C  0.25090293  0.07317589  0.99861183     0.10600
C495        C  0.24337691  0.16270065  0.96331205    -0.52900
C496        C  0.23992374  0.11301846  0.95167590     0.11200
H497        H  0.18529472  0.16134562  0.01260812     0.15700
H498        H  0.22596157  0.02953106  0.96465100     0.01400
H499        H  0.26917094  0.13085798  0.52868743     0.16000
H500        H  0.25126243  0.19719180  0.95012708     0.15800
C501        C  0.04755154  0.84415597  0.74113891     0.87600
C502        C  0.08046969  0.86184444  0.73968836    -0.52700
C503        C  0.08586750  0.91068616  0.72692566     0.10500
C504        C  0.05789244  0.93796238  0.71716743     0.21400
C505        C  0.03114587  0.88878071  0.75777456    -0.53400
C506        C  0.03658288  0.93806640  0.74521582     0.10600
C507        C  0.03823866  0.84776678  0.70903607    -0.52900
C508        C  0.04384874  0.89685676  0.69648891     0.11200
H509        H  0.09803522  0.83745582  0.74746510     0.15700
H510        H  0.06246985  0.97792409  0.70686116     0.01400
H511        H  0.01668156  0.88210108  0.77761933     0.16000
H512        H  0.02895145  0.81421833  0.69705425     0.15800
Zr513      Zr  0.47342186  0.06105391  0.99113955     2.17500
O514        O  0.43249261  0.08677434  0.96140396    -0.50300
O515        O  0.47110057  0.15667623  0.50344700    -0.73500
O516        O  0.42369498  0.03527907  0.51387980    -0.80200
O517        O  0.02831579  0.05844742  0.92193321    -0.82000
O518        O  0.42904804  0.99654785  0.55891345    -0.77600
O519        O  0.48058824  0.07599759  0.93737827    -0.89300
O520        O  0.50973443  0.17957264  0.53167681    -0.75200
O521        O  0.48618014  0.07076937  0.54148167    -0.84700
O522        O  0.02408236  0.09297956  0.98946238    -0.84400
O523        O  0.46860472  0.97208852  0.51194283    -0.71200
O524        O  0.00233003  0.99508224  0.96479262    -0.83300
Zr525      Zr  0.06061348  0.94845507  0.53704043     2.26400
Zr526      Zr  0.48149570  0.98274967  0.56253742     2.06300
Zr527      Zr  0.05296255  0.02618756  0.96445124     2.10000
Zr528      Zr  0.03703462  0.10116176  0.53975597     1.78800
O529        O  0.07056654  0.96628558  0.92536653    -0.92100
O530        O  0.02409676  0.13530260  0.58911157    -0.39900
O531        O  0.06521664  0.03517057  0.51480811    -0.76500
O532        O  0.03208060  0.01544516  0.56302149    -0.95200
O533        O  0.01029862  0.91607721  0.53751594    -0.88500
O534        O  0.04905700  0.93869757  0.98617543    -0.91400
C535        C  0.48667612  0.19049746  0.51798940     1.02400
C536        C  0.50202337  0.07347586  0.91735494     1.15300
C537        C  0.41333322  0.01202697  0.53799218     1.06100
O538        O  0.46698206  0.03818563  0.60477026    -0.93500
O539        O  0.00385928  0.94538251  0.60505602    -0.89300
O540        O  0.05211903  0.93024216  0.59044756    -0.82400
C541        C  0.03017167  0.93087455  0.60997730     1.12700
O542        O  0.45836385  0.89606478  0.95287409    -0.95500
Zr543      Zr  0.99828795  0.90812117  0.98690063     1.88900
O544        O  0.06251010  0.85282505  0.52584897    -0.72100
O545        O  0.45322446  0.90320420  0.58027576    -0.51400
O546        O  0.45882634  0.84924783  0.50906705    -0.96100
O547        O  0.01409248  0.86960404  0.93921968    -0.53300
O548        O  0.02283394  0.82857331  0.99932372    -0.72700
C549        C  0.04598569  0.81821893  0.51301570     0.99700
O550        O  0.10576437  0.91986621  0.55917088    -0.61500
O551        O  0.08194042  0.10088414  0.94160297    -0.56300
O552        O  0.10943875  0.98693525  0.51894091    -0.93000
O553        O  0.10514547  0.02693889  0.97404632    -0.91400
O554        O  0.07438402  0.16295466  0.51656201    -0.91700
O555        O  0.08002284  0.11604958  0.56954848    -0.90500
C556        C  0.12015948  0.01294006  0.99585079     1.18500
H557        H  0.02646559  0.12670488  0.97907694     0.34500
H558        H  0.03815223  0.02146003  0.58292045     0.45300
H559        H  0.06242009  0.91444027  0.97603792     0.38900
H560        H  0.44913317  0.95555397  0.51046318     0.35300
H561        H  0.03114354  0.17313287  0.58847227     0.27100
H562        H  0.43912478  0.91596752  0.59612272     0.33100
H563        H  0.46339726  0.81317001  0.00162596     0.39000
H564        H  0.07050507  0.19776921  0.52606735     0.33400
H565        H  0.08609432  0.09026328  0.92072799     0.32300
H566        H  0.09067359  0.98073008  0.91899411     0.34000
H567        H  0.00799265  0.83135537  0.94087859     0.33000
H568        H  0.09104303  0.08255660  0.56776587     0.36900
H569        H  0.10875095  0.94442629  0.57598060     0.29700
H570        H  0.41940575  0.10852330  0.97455136     0.33900
H571        H  0.45493494  0.85704637  0.95101773     0.36800
H572        H  0.06792249  0.13042991  0.94055845     0.29400
H573        H  0.10046896  0.88486130  0.56854948     0.42200
H574        H  0.45535414  0.06698550  0.59645150     0.32300
H575        H  0.50209141  0.13690562  0.59013626     0.39900
H576        H  0.03611272  0.86974481  0.93879646     0.31800
H577        H  0.44054005  0.89289329  0.56385880     0.31800
H578        H  0.42075928  0.05344784  0.95799779     0.32100
Zr579      Zr  0.28921254  0.08024414  0.79546831     2.17500
O580        O  0.32138252  0.15590877  0.80827549    -0.50300
O581        O  0.27375224  0.08925749  0.84780540    -0.73500
O582        O  0.26703208  0.16609240  0.78559076    -0.80200
O583        O  0.35695286  0.98796682  0.79365246    -0.82000
O584        O  0.22288493  0.15085600  0.76429213    -0.77600
O585        O  0.34265975  0.07336080  0.80127512    -0.89300
O586        O  0.24099015  0.02170549  0.86169080    -0.75200
O587        O  0.23810405  0.05258480  0.80169216    -0.84700
O588        O  0.28845242  0.99136505  0.81453204    -0.84400
O589        O  0.27082685  0.08595455  0.74652893    -0.71200
O590        O  0.31614133  0.02851893  0.75898262    -0.83300
Zr591      Zr  0.24366345  0.91583103  0.73484570     2.26400
Zr592      Zr  0.21959644  0.05662305  0.75304826     2.06300
Zr593      Zr  0.31396187  0.93903307  0.77742160     2.10000
Zr594      Zr  0.23746062  0.96318525  0.81976316     1.78800
O595        O  0.35779416  0.91285169  0.74749318    -0.92100
O596        O  0.18601886  0.97613420  0.83739628    -0.39900
O597        O  0.26290189  0.91004549  0.78327535    -0.76500
O598        O  0.21697546  0.96699788  0.77223257    -0.95200
O599        O  0.24537205  0.00470295  0.71590573    -0.88500
O600        O  0.29502638  0.94247056  0.72906969    -0.91400
C601        C  0.25587177  0.06465240  0.86671583     1.02400
C602        C  0.36211093  0.03687433  0.80003537     1.15300
C603        C  0.24295311  0.18166612  0.77472674     1.06100
O604        O  0.17397907  0.08264572  0.78010456    -0.93500
O605        O  0.17702332  0.01024432  0.73378814    -0.89300
O606        O  0.19100642  0.92504989  0.72488118    -0.82400
C607        C  0.17180436  0.96197191  0.72604704     1.12700
O608        O  0.32777998  0.11210627  0.70095535    -0.95500
Zr609      Zr  0.29668913  0.03182446  0.71093343     1.88900
O610        O  0.25820963  0.90829824  0.68201137    -0.72100
O611        O  0.20939328  0.10273029  0.70733305    -0.51400
O612        O  0.27570788  0.08957057  0.67450350    -0.96100
O613        O  0.34769365  0.01204727  0.69430470    -0.53300
O614        O  0.29085463  0.97622181  0.66829626    -0.72700
C615        C  0.27560298  0.93386580  0.66299383     0.99700
O616        O  0.21802609  0.83109765  0.72461969    -0.61500
O617        O  0.32757765  0.89175155  0.82170503    -0.56300
O618        O  0.26397427  0.82999667  0.74783097    -0.93000
O619        O  0.30842171  0.84458120  0.76870483    -0.91400
O620        O  0.25963848  0.90836796  0.85671734    -0.91700
O621        O  0.20823555  0.88111833  0.82996165    -0.90500
C622        C  0.28786704  0.81409593  0.75895495     1.18500
H623        H  0.29790192  0.99003793  0.83319558     0.34500
H624        H  0.19664932  0.95415792  0.77576568     0.45300
H625        H  0.30590195  0.91881990  0.71584758     0.38900
H626        H  0.27279607  0.12154269  0.73831181     0.35300
H627        H  0.18596285  0.97206669  0.85922368     0.27100
H628        H  0.18962013  0.11824104  0.71144592     0.33100
H629        H  0.28610103  0.08068584  0.65532043     0.39000
H630        H  0.24637756  0.91167897  0.87483404     0.33400
H631        H  0.34590128  0.87299934  0.81538801     0.32300
H632        H  0.36966220  0.89269412  0.76127986     0.34000
H633        H  0.34732306  0.97331234  0.69013570     0.33000
H634        H  0.20565792  0.86524520  0.81018241     0.36900
H635        H  0.20064324  0.82829395  0.73908829     0.29700
H636        H  0.30931289  0.17735653  0.82254425     0.33900
H637        H  0.33422515  0.11059813  0.67964067     0.36800
H638        H  0.33442103  0.91973274  0.83539010     0.29400
H639        H  0.20950011  0.83547739  0.70504169     0.42200
H640        H  0.18037210  0.09474322  0.79967540     0.32300
H641        H  0.18287708  0.01455907  0.83417699     0.39900
H642        H  0.35922963  0.01576297  0.71227052     0.31800
H643        H  0.22352448  0.13386887  0.70614936     0.31800
H644        H  0.32401914  0.17817037  0.79009473     0.32100
Zr645      Zr  0.28985894  0.42489567  0.54835234     2.17500
O646        O  0.31350540  0.34073372  0.55802220    -0.50300
O647        O  0.27570526  0.41314438  0.60115091    -0.73500
O648        O  0.34256076  0.43630583  0.55851937    -0.80200
O649        O  0.22540711  0.35053629  0.51154733    -0.82000
O650        O  0.35819132  0.52291832  0.55165324    -0.77600
O651        O  0.26913705  0.33837571  0.53332720    -0.89300
O652        O  0.24680511  0.48140530  0.61673548    -0.75200
O653        O  0.29051187  0.51315001  0.56781242    -0.84700
O654        O  0.23896162  0.44823408  0.55545685    -0.84400
O655        O  0.31753798  0.47877124  0.51123319    -0.71200
O656        O  0.26992921  0.42087107  0.00016977    -0.83300
Zr657      Zr  0.24637127  0.58947946  0.49030917     2.26400
Zr658      Zr  0.31713866  0.56774013  0.53066881     2.06300
Zr659      Zr  0.21925926  0.44589991  0.50731437     2.10000
Zr660      Zr  0.23963354  0.53683440  0.57420644     1.78800
O661        O  0.20075279  0.40212948  0.96360300    -0.92100
O662        O  0.25843786  0.59688611  0.61168395    -0.39900
O663        O  0.21872770  0.53470619  0.52667490    -0.76500
O664        O  0.26640351  0.59321851  0.53862883    -0.95200
O665        O  0.29709315  0.56558274  0.98270239    -0.88500
O666        O  0.24555685  0.50132968  0.97063283    -0.91400
C667        C  0.26032925  0.43829159  0.62108336     1.02400
C668        C  0.24564000  0.32106840  0.52103279     1.15300
C669        C  0.36242723  0.47425160  0.55856151     1.06100
O670        O  0.33442329  0.61984888  0.57206140    -0.93500
O671        O  0.31455426  0.66272412  0.52039814    -0.89300
O672        O  0.27168307  0.67614520  0.49721738    -0.82400
C673        C  0.29580193  0.69278920  0.50869071     1.12700
O674        O  0.32934422  0.40333885  0.95379144    -0.95500
Zr675      Zr  0.29620333  0.47697864  0.96399220     1.88900
O676        O  0.25732462  0.59882677  0.93699497    -0.72100
O677        O  0.36105544  0.58971773  0.49831266    -0.51400
O678        O  0.34543895  0.50881259  0.94492676    -0.96100
O679        O  0.27660089  0.41271671  0.92907899    -0.53300
O680        O  0.28698097  0.53131791  0.92160969    -0.72700
C681        C  0.27248476  0.57329769  0.91708699     0.99700
O682        O  0.22068655  0.67357284  0.48798713    -0.61500
O683        O  0.17578631  0.41683027  0.53864914    -0.56300
O684        O  0.19336044  0.57833158  0.98118102    -0.93000
O685        O  0.17743444  0.49233439  0.98977944    -0.91400
O686        O  0.18915394  0.50957340  0.59161953    -0.91700
O687        O  0.20885959  0.61390964  0.58344481    -0.90500
C688        C  0.17329510  0.54060859  0.98223665     1.18500
H689        H  0.22796943  0.42369458  0.56880490     0.34500
H690        H  0.26543399  0.62871710  0.54669249     0.45300
H691        H  0.23554928  0.49975101  0.95227620     0.38900
H692        H  0.33762402  0.46694675  0.50759338     0.35300
H693        H  0.24422808  0.59199815  0.62912663     0.27100
H694        H  0.37408010  0.61173186  0.51074585     0.33100
H695        H  0.34504679  0.50595747  0.92307993     0.39000
H696        H  0.18824330  0.51690883  0.61317928     0.33400
H697        H  0.16147958  0.40211565  0.52468323     0.32300
H698        H  0.18222957  0.38270561  0.97087902     0.34000
H699        H  0.26029780  0.43098669  0.91974115     0.33000
H700        H  0.20483623  0.62725970  0.56344093     0.36900
H701        H  0.21127931  0.67373226  0.46867577     0.29700
H702        H  0.32146946  0.34431765  0.57794896     0.33900
H703        H  0.33529931  0.40588951  0.93236434     0.36800
H704        H  0.18210249  0.38526689  0.54962788     0.29400
H705        H  0.20392965  0.67074890  0.50317548     0.42200
H706        H  0.32762821  0.59885992  0.58992709     0.32300
H707        H  0.27693023  0.58066051  0.61778265     0.39900
H708        H  0.26632919  0.38466864  0.94171887     0.31800
H709        H  0.37148303  0.55575852  0.49564458     0.31800
H710        H  0.33128199  0.33971972  0.54406545     0.32100
Zr711      Zr  0.49382470  0.58418589  0.79971607     2.17500
O712        O  0.47212451  0.66681735  0.81788145    -0.50300
O713        O  0.00691528  0.59181372  0.85179414    -0.73500
O714        O  0.43927322  0.57763968  0.80810460    -0.80200
O715        O  0.05980675  0.65950803  0.75795083    -0.82000
O716        O  0.42228319  0.49359537  0.79781395    -0.77600
O717        O  0.01441162  0.67029412  0.78178491    -0.89300
O718        O  0.03608578  0.52331829  0.86333093    -0.75200
O719        O  0.49037111  0.49435801  0.81731202    -0.84700
O720        O  0.04420394  0.55830009  0.80328587    -0.84400
O721        O  0.46875846  0.53502893  0.76196116    -0.71200
O722        O  0.01774600  0.59114027  0.75085802    -0.83300
Zr723      Zr  0.03884966  0.42313552  0.73535559     2.26400
Zr724      Zr  0.46565841  0.44452326  0.77986617     2.06300
Zr725      Zr  0.06767617  0.56384772  0.75431997     2.10000
Zr726      Zr  0.04076494  0.46817425  0.82023332     1.78800
O727        O  0.09057972  0.60343324  0.70888374    -0.92100
O728        O  0.01649440  0.41086377  0.85873623    -0.39900
O729        O  0.06447177  0.47354241  0.77169062    -0.76500
O730        O  0.01564305  0.41663246  0.78483502    -0.95200
O731        O  0.48916455  0.45093784  0.73096069    -0.88500
O732        O  0.04339872  0.51274694  0.71717039    -0.91400
C733        C  0.02269951  0.56619561  0.86962584     1.02400
C734        C  0.03842991  0.68832430  0.76804236     1.15300
C735        C  0.41827033  0.54212893  0.80567984     1.06100
O736        O  0.44368446  0.39769005  0.82350724    -0.93500
O737        O  0.47003506  0.34871540  0.77139366    -0.89300
O738        O  0.01526257  0.33639574  0.74745374    -0.82400
C739        C  0.49062663  0.31910534  0.76027065     1.12700
O740        O  0.46796767  0.62423537  0.70723966    -0.95500
Zr741      Zr  0.49358480  0.54109179  0.71394875     1.88900
O742        O  0.02790675  0.41709358  0.68295290    -0.72100
O743        O  0.42554769  0.41644071  0.74877622    -0.51400
O744        O  0.44327978  0.52468429  0.69783491    -0.96100
O745        O  0.01957366  0.59943476  0.67693963    -0.53300
O746        O  0.99802711  0.48445191  0.67130277    -0.72700
C747        C  0.01186080  0.44192804  0.66513713     0.99700
O748        O  0.06151592  0.34168825  0.71660565    -0.61500
O749        O  0.10810589  0.59780380  0.78353655    -0.56300
O750        O  0.09342200  0.42726532  0.73281487    -0.93000
O751        O  0.11105409  0.51140614  0.74175748    -0.91400
O752        O  0.09212359  0.48367375  0.83338067    -0.91700
O753        O  0.06644339  0.38542794  0.82765205    -0.90500
C754        C  0.11465368  0.46205484  0.73561920     1.18500
H755        H  0.05489474  0.58120889  0.81646380     0.34500
H756        H  0.01620794  0.38159131  0.79354473     0.45300
H757        H  0.05456251  0.51468794  0.69829587     0.38900
H758        H  0.44951866  0.54864461  0.75824167     0.35300
H759        H  0.03031669  0.41142335  0.87507098     0.27100
H760        H  0.41004341  0.40023322  0.76276599     0.33100
H761        H  0.44472218  0.53127281  0.67615660     0.39000
H762        H  0.09150161  0.47992205  0.85525003     0.33400
H763        H  0.12309512  0.61319940  0.76873644     0.32300
H764        H  0.10315101  0.63371050  0.71557415     0.34000
H765        H  0.53082712  0.57547814  0.66335751     0.33000
H766        H  0.07428058  0.37545696  0.80756924     0.36900
H767        H  0.07442773  0.35252216  0.69901413     0.29700
H768        H  0.46071295  0.65740455  0.83664662     0.33900
H769        H  0.46407534  0.62607281  0.68589425     0.36800
H770        H  0.10013377  0.62908025  0.79428031     0.29400
H771        H  0.07537454  0.33061962  0.73164530     0.42200
H772        H  0.44460424  0.42396403  0.83977364     0.32300
H773        H  0.99919401  0.43095787  0.86656149     0.39900
H774        H  0.03503263  0.61874660  0.68786015     0.31800
H775        H  0.41696358  0.45006021  0.74217718     0.31800
H776        H  0.45688174  0.67586329  0.80379753     0.32100
C777        C  0.11568806  0.93260206  0.72218499    -0.12200
C778        C  0.14149762  0.94706048  0.72126276    -0.13800
C779        C  0.04267971  0.79058792  0.75405788    -0.12200
C780        C  0.04068729  0.74454223  0.76192863    -0.13800
C781        C  0.03560583  0.91676073  0.63997500    -0.12200
C782        C  0.03927547  0.90751674  0.66571603    -0.13800
C783        C  0.24223505  0.26465873  0.51617084    -0.12200
C784        C  0.23916959  0.21855767  0.00901391    -0.13800
C785        C  0.24689732  0.10101911  0.92099263    -0.12200
C786        C  0.25189614  0.08661164  0.89584822    -0.13800
C787        C  0.17335459  0.05893993  0.99285664    -0.12200
C788        C  0.15022036  0.03339693  0.99523586    -0.13800
C789        C  0.50795360  0.42030005  0.63623626    -0.12200
C790        C  0.50071003  0.40684387  0.61201800    -0.13800
C791        C  0.39227663  0.45981120  0.56398803    -0.12200
C792        C  0.41702623  0.44253540  0.56349255    -0.13800
C793        C  0.47650666  0.29164675  0.52681432    -0.12200
C794        C  0.47839907  0.24528030  0.51998799    -0.13800
C795        C  0.26338400  0.02589857  0.50986239    -0.12200
C796        C  0.27241440  0.98465712  0.51880138    -0.13800
C797        C  0.28508155  0.90314753  0.60783805    -0.12200
C798        C  0.27898931  0.91392743  0.63337512    -0.13800
C799        C  0.30429045  0.79605272  0.51744588    -0.12200
C800        C  0.30122041  0.74957749  0.51080438    -0.13800
C801        C  0.38290515  0.99304720  0.53998147    -0.12200
C802        C  0.36072672  0.96458810  0.54180186    -0.13800
C803        C  0.23625702  0.28346527  0.76393291    -0.12200
C804        C  0.23919023  0.23785684  0.77144354    -0.13800
C805        C  0.14454066  0.44338005  0.73377088    -0.12200
C806        C  0.16906914  0.42565099  0.73493325    -0.13800
C807        C  0.25139814  0.40253800  0.67588014    -0.12200
C808        C  0.25712390  0.41652719  0.65056517    -0.13800
C809        C  0.02412409  0.52309175  0.51288810    -0.12200
C810        C  0.01030513  0.48410283  0.52265626    -0.13800
C811        C  0.11822395  0.56859168  0.97525956    -0.12200
C812        C  0.14344579  0.55405663  0.97623340    -0.13800
C813        C  0.02708895  0.58703132  0.89866706    -0.12200
C814        C  0.03477019  0.59901538  0.92300416    -0.13800
C815        C  0.05550027  0.71645742  0.00765548    -0.12200
C816        C  0.05351685  0.76325152  0.51299748    -0.13800
C817        C  0.01178935  0.02443690  0.76857338    -0.12200
C818        C  0.02338563  0.98571578  0.75759019    -0.13800
C819        C  0.48753686  0.26272199  0.76544450    -0.12200
C820        C  0.48648590  0.21678580  0.77352111    -0.13800
C821        C  0.41802306  0.06785467  0.80362093    -0.12200
C822        C  0.39240641  0.05252026  0.80413636    -0.13800
C823        C  0.49632880  0.08767586  0.88728091    -0.12200
C824        C  0.49285530  0.09811480  0.86155288    -0.13800
C825        C  0.27312645  0.51782048  0.77396464    -0.12200
C826        C  0.26092019  0.47782720  0.76533998    -0.13800
C827        C  0.29147249  0.75795489  0.76260168    -0.12200
C828        C  0.29528852  0.71282760  0.77043501    -0.13800
C829        C  0.38800116  0.55960615  0.80869569    -0.12200
C830        C  0.36324274  0.57643490  0.80679242    -0.13800
C831        C  0.27906779  0.60379618  0.86148225    -0.12200
C832        C  0.27402087  0.59279031  0.88725027    -0.13800
C833        C  0.79899288  0.66125480  0.28494118     0.87600
C834        C  0.83159903  0.64582381  0.28738633    -0.52700
C835        C  0.83450235  0.59829630  0.30171042     0.10500
C836        C  0.80464307  0.57067019  0.31194212     0.21400
C837        C  0.78393952  0.61409088  0.26960630    -0.53400
C838        C  0.78689277  0.56669394  0.28384791     0.10600
C839        C  0.78550522  0.66018609  0.31690469    -0.52900
C840        C  0.78852575  0.61273216  0.33091800     0.11200
H841        H  0.85055054  0.67030517  0.27882433     0.15700
H842        H  0.80694698  0.53194980  0.32353086     0.01400
H843        H  0.77168215  0.61788923  0.24967980     0.16000
H844        H  0.77497171  0.69404022  0.32760575     0.15800
C845        C  0.98342633  0.16287918  0.28631785     0.87600
C846        C  0.99250400  0.15946609  0.31860663    -0.52700
C847        C  0.98837846  0.10955504  0.33070010     0.10500
C848        C  0.97591663  0.06780524  0.30938327     0.21400
C849        C  0.00146255  0.12053072  0.26945972    -0.53400
C850        C  0.99751833  0.07059459  0.28154293     0.10600
C851        C  0.95115040  0.14187798  0.28724951    -0.52900
C852        C  0.94721241  0.09242472  0.29950805     0.11200
H853        H  0.00050849  0.19358607  0.33098966     0.15700
H854        H  0.97247635  0.02722609  0.31921918     0.01400
H855        H  0.51573195  0.12909112  0.24968224     0.16000
H856        H  0.93287766  0.16453489  0.27946772     0.15800
C857        C  0.55652871  0.66266771  0.49518873     0.87600
C858        C  0.54438806  0.65991973  0.46412128    -0.52700
C859        C  0.54581532  0.61056873  0.45175395     0.10500
C860        C  0.55959329  0.56857277  0.47135389     0.21400
C861        C  0.53873436  0.61910435  0.51329570    -0.53400
C862        C  0.54032567  0.56968939  0.50063954     0.10600
C863        C  0.58821348  0.64288775  0.49148837    -0.52900
C864        C  0.58993023  0.59375845  0.47902781     0.11200
H865        H  0.53525322  0.69376070  0.45304424     0.16900
H866        H  0.56099129  0.52838503  0.46115826     0.01400
H867        H  0.52577314  0.62672680  0.03378795     0.16000
H868        H  0.60763674  0.66555269  0.49836613     0.15800
C869        C  0.73301916  0.33652171  0.25095180     0.87600
C870        C  0.74518904  0.34056061  0.21848699    -0.52700
C871        C  0.74219177  0.38973349  0.20623932     0.10500
C872        C  0.72735504  0.43012199  0.22733522     0.21400
C873        C  0.74934776  0.38139669  0.26707427    -0.53400
C874        C  0.74637490  0.43036583  0.25457101     0.10600
C875        C  0.70056245  0.35345319  0.25053660    -0.52900
C876        C  0.69767953  0.40249780  0.23804537     0.11200
H877        H  0.75505452  0.30762197  0.20631104     0.15700
H878        H  0.72493518  0.47016642  0.21726031     0.01400
H879        H  0.76236181  0.37500428  0.28625962     0.16000
H880        H  0.68164596  0.32883288  0.25907418     0.15800
C881        C  0.80508104  0.84941158  0.03105582     0.87600
C882        C  0.79453297  0.84712576  0.06395342    -0.52700
C883        C  0.79450640  0.89571694  0.07720428     0.10500
C884        C  0.80514892  0.94219572  0.05669997     0.21400
C885        C  0.78491053  0.88951835  0.01683753    -0.53400
C886        C  0.78537799  0.93814179  0.03040153     0.10600
C887        C  0.83602998  0.87789579  0.03020018    -0.52900
C888        C  0.83568944  0.92699438  0.04344084     0.11200
H889        H  0.78753610  0.81047668  0.07564370     0.15700
H890        H  0.80513225  0.98191182  0.06760025     0.01400
H891        H  0.77266991  0.88116203  0.99722308     0.16000
H892        H  0.85584788  0.86201603  0.01905059     0.15800
C893        C  0.97646415  0.34524006  0.04003972     0.87600
C894        C  0.94512219  0.36655746  0.04510752    -0.52700
C895        C  0.94462111  0.41551339  0.05805411     0.10500
C896        C  0.97556803  0.43893332  0.06470165     0.21400
C897        C  0.99424889  0.38868297  0.02176388    -0.53400
C898        C  0.99380632  0.43779756  0.03487948     0.10600
C899        C  0.98974958  0.34665927  0.07067476    -0.52900
C900        C  0.98934729  0.39586650  0.08340710     0.11200
H901        H  0.92509256  0.34502305  0.03884210     0.15700
H902        H  0.97510927  0.47890230  0.07526692     0.01400
H903        H  0.50644712  0.38114063  0.00082741     0.16000
H904        H  0.99868796  0.31209964  0.08123977     0.15800
C905        C  0.73543377  0.16465582  0.49679972     0.87600
C906        C  0.70341004  0.14126542  0.50080900    -0.52700
C907        C  0.70028255  0.09133509  0.48914857     0.10500
C908        C  0.72879834  0.07006474  0.47423262     0.21400
C909        C  0.75478914  0.12271695  0.01058636    -0.53400
C910        C  0.75090316  0.07317593  0.49861196     0.10600
C911        C  0.74337729  0.16270058  0.46331214    -0.52900
C912        C  0.73992410  0.11301842  0.45167598     0.11200
H913        H  0.68529481  0.16134559  0.51260782     0.15700
H914        H  0.72596195  0.02953104  0.46465103     0.01400
H915        H  0.76917125  0.13085821  0.02868722     0.16000
H916        H  0.75126288  0.19719169  0.45012719     0.15800
C917        C  0.54755159  0.84415598  0.24113883     0.87600
C918        C  0.58046980  0.86184414  0.23968792    -0.52700
C919        C  0.58586760  0.91068583  0.22692519     0.10500
C920        C  0.55789251  0.93796234  0.21716726     0.21400
C921        C  0.53114621  0.88878088  0.25777465    -0.53400
C922        C  0.53658328  0.93806657  0.24521588     0.10600
C923        C  0.53823832  0.84776691  0.20903613    -0.52900
C924        C  0.54384842  0.89685688  0.19648893     0.11200
H925        H  0.59803537  0.83745545  0.24746455     0.15700
H926        H  0.56246995  0.97792401  0.20686092     0.01400
H927        H  0.51668203  0.88210136  0.27761951     0.16000
H928        H  0.52895090  0.81421852  0.19705441     0.15800
Zr929      Zr  0.97342176  0.06105391  0.49113975     2.17500
O930        O  0.93249239  0.08677411  0.46140420    -0.50300
O931        O  0.97110048  0.15667689  0.00344681    -0.73500
O932        O  0.92369481  0.03527957  0.01388002    -0.80200
O933        O  0.52831626  0.05844754  0.42193299    -0.82000
O934        O  0.92904782  0.99654727  0.05891341    -0.77600
O935        O  0.98058821  0.07599686  0.43737845    -0.89300
O936        O  0.00973453  0.17957328  0.03167636    -0.75200
O937        O  0.98617988  0.07076977  0.04148197    -0.84700
O938        O  0.52408246  0.09297919  0.48946213    -0.84400
O939        O  0.96860459  0.97208883  0.01194282    -0.71200
O940        O  0.50233020  0.99508194  0.46479237    -0.83300
Zr941      Zr  0.56061350  0.94845492  0.03704037     2.26400
Zr942      Zr  0.98149549  0.98274977  0.06253743     2.06300
Zr943      Zr  0.55296279  0.02618731  0.46445105     2.10000
Zr944      Zr  0.53703475  0.10116157  0.03975579     1.78800
O945        O  0.57056727  0.96628643  0.42536605    -0.92100
O946        O  0.52409670  0.13530387  0.08911106    -0.39900
O947        O  0.56521652  0.03517024  0.01480787    -0.76500
O948        O  0.53208063  0.01544510  0.06302142    -0.95200
O949        O  0.51029860  0.91607726  0.03751591    -0.88500
O950        O  0.54905700  0.93869736  0.48617525    -0.91400
C951        C  0.98667623  0.19049818  0.01798895     1.02400
C952        C  0.00202334  0.07347531  0.41735511     1.15300
C953        C  0.91333302  0.01202691  0.03799224     1.06100
O954        O  0.96698143  0.03818535  0.10477027    -0.93500
O955        O  0.50385897  0.94538269  0.10505599    -0.89300
O956        O  0.55211868  0.93024195  0.09044752    -0.82400
C957        C  0.53017132  0.93087457  0.10997728     1.12700
O958        O  0.95836371  0.89606605  0.45287405    -0.95500
Zr959      Zr  0.49828792  0.90812107  0.48690047     1.88900
O960        O  0.56251023  0.85282490  0.02584894    -0.72100
O961        O  0.95322496  0.90320320  0.08027529    -0.51400
O962        O  0.95882637  0.84924754  0.00906666    -0.96100
O963        O  0.51409275  0.86960600  0.43921914    -0.53300
O964        O  0.52283349  0.82857292  0.49932332    -0.72700
C965        C  0.54598563  0.81821877  0.01301591     0.99700
O966        O  0.60576439  0.91986597  0.05917085    -0.61500
O967        O  0.58194062  0.10088538  0.44160425    -0.56300
O968        O  0.60943876  0.98693535  0.01894090    -0.93000
O969        O  0.60514573  0.02693847  0.47404590    -0.91400
O970        O  0.57438492  0.16295288  0.01656178    -0.91700
O971        O  0.58002324  0.11604858  0.06954802    -0.90500
C972        C  0.62015966  0.01293999  0.49585051     1.18500
H973        H  0.52646555  0.12670458  0.47907676     0.34500
H974        H  0.53815234  0.02146009  0.08292065     0.45300
H975        H  0.56242073  0.91443892  0.47603722     0.38900
H976        H  0.94913334  0.95555466  0.01046308     0.35300
H977        H  0.53114345  0.17313389  0.08847148     0.27100
H978        H  0.93912487  0.91596596  0.09612220     0.33100
H979        H  0.96339714  0.81316951  0.50162544     0.39000
H980        H  0.57050431  0.19776869  0.02606459     0.33400
H981        H  0.58609381  0.09026665  0.42072884     0.32300
H982        H  0.59067403  0.98073351  0.41899253     0.34000
H983        H  0.50799277  0.83135767  0.44087742     0.33000
H984        H  0.59104459  0.08255623  0.06776359     0.36900
H985        H  0.60875092  0.94442605  0.07598057     0.29700
H986        H  0.91940586  0.10852299  0.47455132     0.33900
H987        H  0.95493560  0.85704768  0.45101643     0.36800
H988        H  0.56792282  0.13043178  0.44056112     0.29400
H989        H  0.60046896  0.88486107  0.06854945     0.42200
H990        H  0.95535423  0.06698596  0.09645134     0.32300
H991        H  0.00209076  0.13690869  0.09013602     0.39900
H992        H  0.53611337  0.86974633  0.43879618     0.31800
H993        H  0.94054100  0.89289198  0.06385827     0.31800
H994        H  0.92075900  0.05344748  0.45799822     0.32100
Zr995      Zr  0.78921240  0.08024382  0.29546834     2.17500
O996        O  0.82138240  0.15590847  0.30827544    -0.50300
O997        O  0.77375206  0.08925715  0.34780541    -0.73500
O998        O  0.76703213  0.16609222  0.28559075    -0.80200
O999        O  0.85695264  0.98796580  0.29365266    -0.82000
O1000       O  0.72288497  0.15085604  0.26429212    -0.77600
O1001       O  0.84265953  0.07335979  0.30127531    -0.89300
O1002       O  0.74098982  0.02170543  0.36169085    -0.75200
O1003       O  0.73810387  0.05258487  0.30169217    -0.84700
O1004       O  0.78845217  0.99136473  0.31453202    -0.84400
O1005       O  0.77082684  0.08595426  0.24652891    -0.71200
O1006       O  0.81614118  0.02851848  0.25898273    -0.83300
Zr1007     Zr  0.74366339  0.91583091  0.23484564     2.26400
Zr1008     Zr  0.71959639  0.05662307  0.25304824     2.06300
Zr1009     Zr  0.81396161  0.93903253  0.27742162     2.10000
Zr1010     Zr  0.73746031  0.96318529  0.31976317     1.78800
O1011       O  0.85779374  0.91285184  0.24749275    -0.92100
O1012       O  0.68601848  0.97613313  0.33739647    -0.39900
O1013       O  0.76290155  0.91004546  0.28327538    -0.76500
O1014       O  0.71697536  0.96699789  0.27223247    -0.95200
O1015       O  0.74537207  0.00470293  0.21590575    -0.88500
O1016       O  0.79502638  0.94247012  0.22906962    -0.91400
C1017       C  0.75587155  0.06465222  0.36671585     1.02400
C1018       C  0.86211071  0.03687333  0.30003553     1.15300
C1019       C  0.74295317  0.18166605  0.27472676     1.06100
O1020       O  0.67397942  0.08264549  0.28010527    -0.93500
O1021       O  0.67702327  0.01024408  0.23378829    -0.89300
O1022       O  0.69100650  0.92504988  0.22488073    -0.82400
C1023       C  0.67180438  0.96197181  0.22604686     1.12700
O1024       O  0.82777941  0.11210675  0.20095552    -0.95500
Zr1025     Zr  0.79668918  0.03182415  0.21093346     1.88900
O1026       O  0.75820971  0.90829806  0.18201138    -0.72100
O1027       O  0.70939245  0.10273156  0.20733365    -0.51400
O1028       O  0.77570818  0.08957023  0.17450329    -0.96100
O1029       O  0.84769389  0.01204740  0.19430515    -0.53300
O1030       O  0.79085465  0.97622173  0.16829624    -0.72700
C1031       C  0.77560300  0.93386571  0.16299383     0.99700
O1032       O  0.71802632  0.83109707  0.22461994    -0.61500
O1033       O  0.82757814  0.89175045  0.32170457    -0.56300
O1034       O  0.76397403  0.82999633  0.24783071    -0.93000
O1035       O  0.80842119  0.84458062  0.26870510    -0.91400
O1036       O  0.75963895  0.90836852  0.35671708    -0.91700
O1037       O  0.70823559  0.88111804  0.32996185    -0.90500
C1038       C  0.78786665  0.81409548  0.25895490     1.18500
H1039       H  0.79790169  0.99003766  0.33319557     0.34500
H1040       H  0.69664848  0.95415746  0.27576563     0.45300
H1041       H  0.80590224  0.91881881  0.21584724     0.38900
H1042       H  0.77279613  0.12154241  0.23831181     0.35300
H1043       H  0.68596270  0.97206700  0.35922402     0.27100
H1044       H  0.68961922  0.11824249  0.21144706     0.33100
H1045       H  0.78610111  0.08068491  0.15532021     0.39000
H1046       H  0.74637847  0.91167970  0.37483392     0.33400
H1047       H  0.84590296  0.87300192  0.31538784     0.32300
H1048       H  0.86966068  0.89268972  0.26127864     0.34000
H1049       H  0.84732301  0.97331279  0.19013436     0.33000
H1050       H  0.70565886  0.86524399  0.31018290     0.36900
H1051       H  0.70064360  0.82829362  0.23908815     0.29700
H1052       H  0.80931256  0.17735680  0.32254421     0.33900
H1053       H  0.83422577  0.11059749  0.17964139     0.36800
H1054       H  0.83441951  0.91973203  0.33539067     0.29400
H1055       H  0.70950042  0.83547651  0.20504154     0.42200
H1056       H  0.68037277  0.09474288  0.29967589     0.32300
H1057       H  0.68287616  0.01455765  0.33417649     0.39900
H1058       H  0.85922930  0.01575988  0.21227145     0.31800
H1059       H  0.72352364  0.13386997  0.20614993     0.31800
H1060       H  0.82401919  0.17816962  0.29009479     0.32100
Zr1061     Zr  0.78985890  0.42489566  0.04835240     2.17500
O1062       O  0.81350542  0.34073358  0.05802201    -0.50300
O1063       O  0.77570512  0.41314371  0.10115090    -0.73500
O1064       O  0.84256073  0.43630573  0.05851937    -0.80200
O1065       O  0.72540719  0.35053632  0.01154718    -0.82000
O1066       O  0.85819125  0.52291818  0.05165301    -0.77600
O1067       O  0.76913726  0.33837578  0.03332680    -0.89300
O1068       O  0.74680535  0.48140514  0.11673549    -0.75200
O1069       O  0.79051190  0.51315010  0.06781245    -0.84700
O1070       O  0.73896157  0.44823399  0.05545713    -0.84400
O1071       O  0.81753780  0.47877136  0.01123322    -0.71200
O1072       O  0.76992900  0.42087119  0.50016978    -0.83300
Zr1073     Zr  0.74637109  0.58947948  0.99030926     2.26400
Zr1074     Zr  0.81713858  0.56774024  0.03066877     2.06300
Zr1075     Zr  0.71925908  0.44589994  0.00731473     2.10000
Zr1076     Zr  0.73963357  0.53683445  0.07420652     1.78800
O1077       O  0.70075260  0.40212995  0.46360296    -0.92100
O1078       O  0.75843816  0.59688630  0.11168377    -0.39900
O1079       O  0.71872755  0.53470639  0.02667508    -0.76500
O1080       O  0.76640344  0.59321861  0.03862885    -0.95200
O1081       O  0.79709316  0.56558279  0.48270225    -0.88500
O1082       O  0.74555655  0.50132989  0.47063284    -0.91400
C1083       C  0.76032925  0.43829114  0.12108336     1.02400
C1084       C  0.74564016  0.32106842  0.02103249     1.15300
C1085       C  0.86242719  0.47425151  0.05856138     1.06100
O1086       O  0.83442378  0.61984894  0.07206114    -0.93500
O1087       O  0.81455398  0.66272426  0.02039823    -0.89300
O1088       O  0.77168281  0.67614519  0.99721739    -0.82400
C1089       C  0.79580162  0.69278927  0.00869077     1.12700
O1090       O  0.82934409  0.40333937  0.45379093    -0.95500
Zr1091     Zr  0.79620299  0.47697871  0.46399206     1.88900
O1092       O  0.75732499  0.59882753  0.43699506    -0.72100
O1093       O  0.86105528  0.58971768  0.99831249    -0.51400
O1094       O  0.84543857  0.50881386  0.44492716    -0.96100
O1095       O  0.77660033  0.41271673  0.42907898    -0.53300
O1096       O  0.78698056  0.53131779  0.42160950    -0.72700
C1097       C  0.77248477  0.57329812  0.41708695     0.99700
O1098       O  0.72068667  0.67357310  0.98798692    -0.61500
O1099       O  0.67578643  0.41682888  0.03864973    -0.56300
O1100       O  0.69336044  0.57833202  0.48118085    -0.93000
O1101       O  0.67743430  0.49233492  0.48977947    -0.91400
O1102       O  0.68915403  0.50957278  0.09161949    -0.91700
O1103       O  0.70885941  0.61390924  0.08344584    -0.90500
C1104       C  0.67329504  0.54060910  0.48223659     1.18500
H1105       H  0.72796960  0.42369485  0.06880495     0.34500
H1106       H  0.76543396  0.62871710  0.04669250     0.45300
H1107       H  0.73554856  0.49975132  0.45227562     0.38900
H1108       H  0.83762384  0.46694685  0.00759336     0.35300
H1109       H  0.74422859  0.59199859  0.12912631     0.27100
H1110       H  0.87408000  0.61173122  0.01074559     0.33100
H1111       H  0.84504668  0.50595885  0.42308029     0.39000
H1112       H  0.68824302  0.51690974  0.11317916     0.33400
H1113       H  0.66147924  0.40211510  0.02468368     0.32300
H1114       H  0.68223017  0.38270433  0.47087914     0.34000
H1115       H  0.76029643  0.43098656  0.41974164     0.33000
H1116       H  0.70483801  0.62726261  0.06344229     0.36900
H1117       H  0.71127929  0.67373229  0.96867566     0.29700
H1118       H  0.82146928  0.34431707  0.07794857     0.33900
H1119       H  0.83529955  0.40589097  0.43236417     0.36800
H1120       H  0.68210257  0.38526508  0.04962771     0.29400
H1121       H  0.70392981  0.67074954  0.00317541     0.42200
H1122       H  0.82762821  0.59886081  0.08992689     0.32300
H1123       H  0.77693060  0.58066049  0.11778242     0.39900
H1124       H  0.76632948  0.38466853  0.44171872     0.31800
H1125       H  0.87148285  0.55575786  0.99564416     0.31800
H1126       H  0.83128235  0.33971983  0.04406514     0.32100
Zr1127     Zr  0.99382477  0.58418584  0.29971611     2.17500
O1128       O  0.97212514  0.66681758  0.31788169    -0.50300
O1129       O  0.50691505  0.59181345  0.35179422    -0.73500
O1130       O  0.93927331  0.57763940  0.30810498    -0.80200
O1131       O  0.55980724  0.65950816  0.25795108    -0.82000
O1132       O  0.92228321  0.49359524  0.29781399    -0.77600
O1133       O  0.51441186  0.67029397  0.28178475    -0.89300
O1134       O  0.53608583  0.52331832  0.36333087    -0.75200
O1135       O  0.99037129  0.49435803  0.31731203    -0.84700
O1136       O  0.54420387  0.55830008  0.30328594    -0.84400
O1137       O  0.96875830  0.53502873  0.26196135    -0.71200
O1138       O  0.51774626  0.59114046  0.25085815    -0.83300
Zr1139     Zr  0.53884957  0.42313577  0.23535560     2.26400
Zr1140     Zr  0.96565848  0.44452300  0.27986632     2.06300
Zr1141     Zr  0.56767640  0.56384774  0.25432018     2.10000
Zr1142     Zr  0.54076494  0.46817421  0.32023330     1.78800
O1143       O  0.59058022  0.60343343  0.20888415    -0.92100
O1144       O  0.51649463  0.41086418  0.35873646    -0.39900
O1145       O  0.56447185  0.47354231  0.27169063    -0.76500
O1146       O  0.51564304  0.41663241  0.28483504    -0.95200
O1147       O  0.98916449  0.45093752  0.23096081    -0.88500
O1148       O  0.54339890  0.51274723  0.21717054    -0.91400
C1149       C  0.52269940  0.56619543  0.36962586     1.02400
C1150       C  0.53843025  0.68832431  0.26804242     1.15300
C1151       C  0.91827038  0.54212874  0.30568007     1.06100
O1152       O  0.94368448  0.39768970  0.32350730    -0.93500
O1153       O  0.97003517  0.34871512  0.27139370    -0.89300
O1154       O  0.51526283  0.33639592  0.24745388    -0.82400
C1155       C  0.99062687  0.31910504  0.26027093     1.12700
O1156       O  0.96796766  0.62423551  0.20723989    -0.95500
Zr1157     Zr  0.99358449  0.54109160  0.21394888     1.88900
O1158       O  0.52790676  0.41709403  0.18295287    -0.72100
O1159       O  0.92554773  0.41644009  0.24877646    -0.51400
O1160       O  0.94327969  0.52468443  0.19783428    -0.96100
O1161       O  0.51957376  0.59943498  0.17693937    -0.53300
O1162       O  0.49802747  0.48445274  0.17130256    -0.72700
C1163       C  0.51186095  0.44192861  0.16513701     0.99700
O1164       O  0.56151553  0.34168844  0.21660542    -0.61500
O1165       O  0.60810586  0.59780232  0.28353764    -0.56300
O1166       O  0.59342186  0.42726514  0.23281487    -0.93000
O1167       O  0.61105413  0.51140585  0.24175747    -0.91400
O1168       O  0.59212367  0.48367387  0.33338042    -0.91700
O1169       O  0.56644301  0.38542765  0.32765224    -0.90500
C1170       C  0.61465361  0.46205454  0.23561913     1.18500
H1171       H  0.55489410  0.58120775  0.31646329     0.34500
H1172       H  0.51620791  0.38159066  0.29354495     0.45300
H1173       H  0.55456249  0.51468809  0.19829639     0.38900
H1174       H  0.94951848  0.54864437  0.25824190     0.35300
H1175       H  0.53031662  0.41142562  0.37507175     0.27100
H1176       H  0.91004246  0.40023713  0.26276643     0.33100
H1177       H  0.94472252  0.53127221  0.17615580     0.39000
H1178       H  0.59150171  0.47992293  0.35524988     0.33400
H1179       H  0.62309610  0.61319607  0.26873763     0.32300
H1180       H  0.60315230  0.63370929  0.21557474     0.34000
H1181       H  0.03082691  0.57547881  0.16335756     0.33000
H1182       H  0.57428170  0.37545822  0.30756980     0.36900
H1183       H  0.57442760  0.35252239  0.19901399     0.29700
H1184       H  0.96071416  0.65740495  0.33664699     0.33900
H1185       H  0.96407446  0.62607220  0.18589471     0.36800
H1186       H  0.60013427  0.62907987  0.29428047     0.29400
H1187       H  0.57537395  0.33061927  0.23164515     0.42200
H1188       H  0.94460517  0.42396328  0.33977397     0.32300
H1189       H  0.49919373  0.43095725  0.36656089     0.39900
H1190       H  0.53503219  0.61874831  0.18786007     0.31800
H1191       H  0.91696540  0.45005966  0.24217520     0.31800
H1192       H  0.95688198  0.67586328  0.30379813     0.32100
C1193       C  0.61568814  0.93260182  0.22218456    -0.12200
C1194       C  0.64149767  0.94706043  0.22126247    -0.13800
C1195       C  0.54267979  0.79058796  0.25405787    -0.12200
C1196       C  0.54068753  0.74454227  0.26192867    -0.13800
C1197       C  0.53560544  0.91676085  0.13997503    -0.12200
C1198       C  0.53927504  0.90751686  0.16571608    -0.13800
C1199       C  0.74223521  0.26465877  0.01617057    -0.12200
C1200       C  0.73916965  0.21855774  0.50901392    -0.13800
C1201       C  0.74689752  0.10101915  0.42099267    -0.12200
C1202       C  0.75189605  0.08661156  0.39584825    -0.13800
C1203       C  0.67335479  0.05893990  0.49285643    -0.12200
C1204       C  0.65022051  0.03339701  0.49523563    -0.13800
C1205       C  0.00795305  0.42029978  0.13623651    -0.12200
C1206       C  0.00070968  0.40684364  0.11201818    -0.13800
C1207       C  0.89227662  0.45981126  0.06398795    -0.12200
C1208       C  0.91702624  0.44253555  0.06349254    -0.13800
C1209       C  0.97650699  0.29164755  0.02681383    -0.12200
C1210       C  0.97839939  0.24528115  0.01998738    -0.13800
C1211       C  0.76338417  0.02589874  0.00986251    -0.12200
C1212       C  0.77241445  0.98465729  0.01880158    -0.13800
C1213       C  0.78508136  0.90314750  0.10783809    -0.12200
C1214       C  0.77898920  0.91392749  0.13337514    -0.13800
C1215       C  0.80429010  0.79605280  0.01744589    -0.12200
C1216       C  0.80122003  0.74957758  0.01080441    -0.13800
C1217       C  0.88290498  0.99304703  0.03998145    -0.12200
C1218       C  0.86072663  0.96458777  0.04180200    -0.13800
C1219       C  0.73625691  0.28346517  0.26393307    -0.12200
C1220       C  0.73919027  0.23785681  0.27144370    -0.13800
C1221       C  0.64454054  0.44337960  0.23377063    -0.12200
C1222       C  0.66906899  0.42565040  0.23493284    -0.13800
C1223       C  0.75139833  0.40253768  0.17588022    -0.12200
C1224       C  0.75712386  0.41652672  0.15056517    -0.13800
C1225       C  0.52412395  0.52309179  0.01288834    -0.12200
C1226       C  0.51030504  0.48410285  0.02265651    -0.13800
C1227       C  0.61822386  0.56859180  0.47525956    -0.12200
C1228       C  0.64344576  0.55405711  0.47623335    -0.13800
C1229       C  0.52708883  0.58703098  0.39866708    -0.12200
C1230       C  0.53477017  0.59901477  0.42300417    -0.13800
C1231       C  0.55549977  0.71645695  0.50765541    -0.12200
C1232       C  0.55351664  0.76325134  0.01299767    -0.13800
C1233       C  0.51178989  0.02443707  0.26857359    -0.12200
C1234       C  0.52338625  0.98571602  0.25759039    -0.13800
C1235       C  0.98753707  0.26272164  0.26544478    -0.12200
C1236       C  0.98648593  0.21678536  0.27352132    -0.13800
C1237       C  0.91802282  0.06785407  0.30362092    -0.12200
C1238       C  0.89240620  0.05251944  0.30413639    -0.13800
C1239       C  0.99632864  0.08767494  0.38728107    -0.12200
C1240       C  0.99285509  0.09811402  0.36155306    -0.13800
C1241       C  0.77312625  0.51782036  0.27396483    -0.12200
C1242       C  0.76091980  0.47782724  0.26534019    -0.13800
C1243       C  0.79147209  0.75795442  0.26260146    -0.12200
C1244       C  0.79528826  0.71282719  0.27043474    -0.13800
C1245       C  0.88800120  0.55960612  0.30869585    -0.12200
C1246       C  0.86324281  0.57643499  0.30679247    -0.13800
C1247       C  0.77906786  0.60379665  0.36148222    -0.12200
C1248       C  0.77402095  0.59279091  0.38725026    -0.13800
C1249       C  0.79899280  0.66125468  0.78494153     0.87600
C1250       C  0.83159901  0.64582390  0.78738655    -0.52700
C1251       C  0.83450250  0.59829621  0.80171044     0.10500
C1252       C  0.80464326  0.57066975  0.81194207     0.21400
C1253       C  0.78393953  0.61409086  0.76960648    -0.53400
C1254       C  0.78689287  0.56669383  0.78384793     0.10600
C1255       C  0.78550519  0.66018543  0.81690507    -0.52900
C1256       C  0.78852582  0.61273131  0.83091816     0.11200
H1257       H  0.85055044  0.67030559  0.77882468     0.15700
H1258       H  0.80694727  0.53194916  0.82353059     0.01400
H1259       H  0.77168201  0.61788937  0.74968007     0.16000
H1260       H  0.77497160  0.69403931  0.82760633     0.15800
C1261       C  0.98342638  0.16287866  0.78631734     0.87600
C1262       C  0.99250401  0.15946546  0.81860615    -0.52700
C1263       C  0.98837834  0.10955443  0.83069966     0.10500
C1264       C  0.97591651  0.06780476  0.80938279     0.21400
C1265       C  0.00146255  0.12053016  0.76945922    -0.53400
C1266       C  0.99751819  0.07059406  0.78154240     0.10600
C1267       C  0.95115038  0.14187755  0.78724897    -0.52900
C1268       C  0.94721231  0.09242436  0.79950765     0.11200
H1269       H  0.00050853  0.19358544  0.83098915     0.15700
H1270       H  0.97247620  0.02722560  0.81921870     0.01400
H1271       H  0.51573166  0.12909234  0.74968244     0.16000
H1272       H  0.93287767  0.16453457  0.77946720     0.15800
C1273       C  0.55652865  0.66266837  0.99518844     0.87600
C1274       C  0.54438755  0.65992031  0.96412118    -0.52700
C1275       C  0.54581483  0.61056934  0.95175380     0.10500
C1276       C  0.55959314  0.56857346  0.97135359     0.21400
C1277       C  0.53873459  0.61910495  0.01329563    -0.53400
C1278       C  0.54032586  0.56969001  0.00063947     0.10600
C1279       C  0.58821343  0.64288857  0.99148770    -0.52900
C1280       C  0.58993016  0.59375926  0.97902719     0.11200
H1281       H  0.53525251  0.69376122  0.95304427     0.16900
H1282       H  0.56099109  0.52838570  0.96115798     0.01400
H1283       H  0.52577267  0.62672627  0.53378787     0.16000
H1284       H  0.60763670  0.66555351  0.99836545     0.15800
C1285       C  0.73301978  0.33652187  0.75095194     0.87600
C1286       C  0.74519015  0.34056153  0.71848727    -0.52700
C1287       C  0.74219246  0.38973440  0.70623965     0.10500
C1288       C  0.72735495  0.43012210  0.72733550     0.21400
C1289       C  0.74934757  0.38139713  0.76707482    -0.53400
C1290       C  0.74637443  0.43036619  0.75457158     0.10600
C1291       C  0.70056287  0.35345225  0.75053630    -0.52900
C1292       C  0.69767955  0.40249683  0.73804507     0.11200
H1293       H  0.75505624  0.30762339  0.70631136     0.15700
H1294       H  0.72493479  0.47016660  0.71726073     0.01400
H1295       H  0.76236151  0.37500495  0.78626028     0.16000
H1296       H  0.68164655  0.32883128  0.75907364     0.15800
C1297       C  0.80508090  0.84941184  0.53105600     0.87600
C1298       C  0.79453257  0.84712597  0.56395351    -0.52700
C1299       C  0.79450583  0.89571710  0.57720442     0.10500
C1300       C  0.80514848  0.94219593  0.55670021     0.21400
C1301       C  0.78491048  0.88951856  0.51683755    -0.53400
C1302       C  0.78537776  0.93814198  0.53040159     0.10600
C1303       C  0.83602981  0.87789620  0.53020061    -0.52900
C1304       C  0.83568916  0.92699482  0.54344127     0.11200
H1305       H  0.78753572  0.81047687  0.57564374     0.15700
H1306       H  0.80513166  0.98191199  0.56760051     0.01400
H1307       H  0.77267008  0.88116224  0.49722296     0.16000
H1308       H  0.85584776  0.86201664  0.51905101     0.15800
C1309       C  0.97646438  0.34524026  0.54003976     0.87600
C1310       C  0.94512242  0.36655776  0.54510708    -0.52700
C1311       C  0.94462127  0.41551372  0.55805362     0.10500
C1312       C  0.97556811  0.43893358  0.56470151     0.21400
C1313       C  0.99424942  0.38868291  0.52176407    -0.53400
C1314       C  0.99380676  0.43779758  0.53487953     0.10600
C1315       C  0.98974930  0.34665940  0.57067501    -0.52900
C1316       C  0.98934699  0.39586668  0.58340723     0.11200
H1317       H  0.92509287  0.34502335  0.53884144     0.15700
H1318       H  0.97510930  0.47890264  0.57526670     0.01400
H1319       H  0.50644616  0.38113950  0.50082702     0.16000
H1320       H  0.99868734  0.31209968  0.58124026     0.15800
C1321       C  0.73543364  0.16465545  0.99680002     0.87600
C1322       C  0.70340990  0.14126518  0.00080926    -0.52700
C1323       C  0.70028243  0.09133485  0.98914881     0.10500
C1324       C  0.72879820  0.07006436  0.97423289     0.21400
C1325       C  0.75478934  0.12271738  0.51058603    -0.53400
C1326       C  0.75090295  0.07317552  0.99861227     0.10600
C1327       C  0.74337720  0.16270016  0.96331240    -0.52900
C1328       C  0.73992400  0.11301797  0.95167622     0.11200
H1329       H  0.68529468  0.16134536  0.01260812     0.15700
H1330       H  0.72596173  0.02953063  0.96465132     0.01400
H1331       H  0.76917144  0.13085869  0.52868690     0.16000
H1332       H  0.75126273  0.19719129  0.95012742     0.15800
C1333       C  0.54755184  0.84415676  0.74113954     0.87600
C1334       C  0.58047001  0.86184500  0.73968868    -0.52700
C1335       C  0.58586777  0.91068678  0.72692608     0.10500
C1336       C  0.55789274  0.93796319  0.71716802     0.21400
C1337       C  0.53114644  0.88878174  0.75777537    -0.53400
C1338       C  0.53658348  0.93806743  0.74521657     0.10600
C1339       C  0.53823866  0.84776772  0.70903678    -0.52900
C1340       C  0.54384877  0.89685769  0.69648957     0.11200
H1341       H  0.59803558  0.83745628  0.74746524     0.15700
H1342       H  0.56247020  0.97792488  0.70686176     0.01400
H1343       H  0.51668228  0.88210227  0.77762024     0.16000
H1344       H  0.52895134  0.81421929  0.69705501     0.15800
Zr1345     Zr  0.97342174  0.06105303  0.99113953     2.17500
O1346       O  0.93249224  0.08677396  0.96140442    -0.50300
O1347       O  0.97110106  0.15667771  0.50344704    -0.73500
O1348       O  0.92369463  0.03528129  0.51388051    -0.80200
O1349       O  0.52831596  0.05844819  0.92193338    -0.82000
O1350       O  0.92904772  0.99654787  0.55891359    -0.77600
O1351       O  0.98058776  0.07599464  0.93737810    -0.89300
O1352       O  0.00973602  0.17957451  0.53167541    -0.75200
O1353       O  0.98618026  0.07077024  0.54148209    -0.84700
O1354       O  0.52408258  0.09298027  0.98946234    -0.84400
O1355       O  0.96860443  0.97208947  0.51194271    -0.71200
O1356       O  0.50232990  0.99508256  0.96479293    -0.83300
Zr1357     Zr  0.56061342  0.94845473  0.53704026     2.26400
Zr1358     Zr  0.98149550  0.98274999  0.56253735     2.06300
Zr1359     Zr  0.55296249  0.02618772  0.96445135     2.10000
Zr1360     Zr  0.53703438  0.10116087  0.53975563     1.78800
O1361       O  0.57056656  0.96628601  0.92536663    -0.92100
O1362       O  0.52409575  0.13530095  0.58911117    -0.39900
O1363       O  0.56521652  0.03516995  0.51480764    -0.76500
O1364       O  0.53208076  0.01544473  0.56302158    -0.95200
O1365       O  0.51029854  0.91607712  0.53751558    -0.88500
O1366       O  0.54905713  0.93869764  0.98617536    -0.91400
C1367       C  0.98667733  0.19049917  0.51798854     1.02400
C1368       C  0.00202293  0.07347377  0.91735475     1.15300
C1369       C  0.91333284  0.01202801  0.53799259     1.06100
O1370       O  0.96698300  0.03818682  0.60477012    -0.93500
O1371       O  0.50385956  0.94538329  0.60505638    -0.89300
O1372       O  0.55211908  0.93024177  0.59044761    -0.82400
C1373       C  0.53017188  0.93087490  0.60997758     1.12700
O1374       O  0.95836132  0.89606826  0.95287626    -0.95500
Zr1375     Zr  0.49828809  0.90812134  0.98690083     1.88900
O1376       O  0.56250909  0.85282436  0.52584897    -0.72100
O1377       O  0.95322436  0.90320383  0.58027530    -0.51400
O1378       O  0.95882556  0.84924988  0.50906725    -0.96100
O1379       O  0.51409302  0.86960355  0.93922025    -0.53300
O1380       O  0.52283378  0.82857352  0.99932456    -0.72700
C1381       C  0.54598488  0.81821823  0.51301542     0.99700
O1382       O  0.60576468  0.91986659  0.55917019    -0.61500
O1383       O  0.58194019  0.10088314  0.94160167    -0.56300
O1384       O  0.60943854  0.98693628  0.51894080    -0.93000
O1385       O  0.60514529  0.02694103  0.97404707    -0.91400
O1386       O  0.57438273  0.16295656  0.51656246    -0.91700
O1387       O  0.58002285  0.11604807  0.56954777    -0.90500
C1388       C  0.62015956  0.01294060  0.99585105     1.18500
H1389       H  0.52646595  0.12670492  0.97907705     0.34500
H1390       H  0.53815276  0.02146001  0.58292108     0.45300
H1391       H  0.56242092  0.91443937  0.97603732     0.38900
H1392       H  0.94913340  0.95555606  0.51046290     0.35300
H1393       H  0.53114166  0.17313224  0.58847171     0.27100
H1394       H  0.93912496  0.91596634  0.59612233     0.33100
H1395       H  0.96339984  0.81316701  0.00162678     0.39000
H1396       H  0.57050178  0.19777150  0.52606676     0.33400
H1397       H  0.58609348  0.09026148  0.92072658     0.32300
H1398       H  0.59067618  0.98072487  0.91899804     0.34000
H1399       H  0.50799372  0.83135423  0.94087952     0.33000
H1400       H  0.59104519  0.08255706  0.56776189     0.36900
H1401       H  0.60875119  0.94442660  0.57597996     0.29700
H1402       H  0.91940532  0.10852215  0.97455204     0.33900
H1403       H  0.95493348  0.85705022  0.95101762     0.36800
H1404       H  0.56792266  0.13042888  0.94055734     0.29400
H1405       H  0.60046950  0.88486138  0.56854879     0.42200
H1406       H  0.95535440  0.06698600  0.59645151     0.32300
H1407       H  0.00209212  0.13690921  0.59013651     0.39900
H1408       H  0.53611316  0.86974540  0.93879693     0.31800
H1409       H  0.94053979  0.89289318  0.56385831     0.31800
H1410       H  0.92075898  0.05344718  0.95799791     0.32100
Zr1411     Zr  0.78921259  0.08024348  0.79546841     2.17500
O1412       O  0.82138305  0.15590940  0.80827268    -0.50300
O1413       O  0.77375212  0.08925697  0.84780553    -0.73500
O1414       O  0.76703236  0.16609194  0.78559124    -0.80200
O1415       O  0.85695264  0.98796487  0.79365329    -0.82000
O1416       O  0.72288546  0.15085643  0.76429209    -0.77600
O1417       O  0.84265952  0.07335888  0.80127603    -0.89300
O1418       O  0.74098986  0.02170514  0.86169086    -0.75200
O1419       O  0.73810410  0.05258449  0.80169229    -0.84700
O1420       O  0.78845242  0.99136422  0.81453197    -0.84400
O1421       O  0.77082722  0.08595407  0.74652897    -0.71200
O1422       O  0.81614123  0.02851793  0.75898282    -0.83300
Zr1423     Zr  0.74366337  0.91583093  0.73484582     2.26400
Zr1424     Zr  0.71959677  0.05662338  0.75304834     2.06300
Zr1425     Zr  0.81396174  0.93903188  0.77742156     2.10000
Zr1426     Zr  0.73746052  0.96318482  0.81976321     1.78800
O1427       O  0.85779434  0.91285178  0.74749307    -0.92100
O1428       O  0.68601871  0.97613214  0.83739690    -0.39900
O1429       O  0.76290165  0.91004471  0.78327545    -0.76500
O1430       O  0.71697544  0.96699815  0.77223262    -0.95200
O1431       O  0.74537231  0.00470291  0.71590591    -0.88500
O1432       O  0.79502639  0.94246978  0.72906968    -0.91400
C1433       C  0.75587157  0.06465193  0.86671595     1.02400
C1434       C  0.86211068  0.03687239  0.80003626     1.15300
C1435       C  0.74295364  0.18166616  0.77472699     1.06100
O1436       O  0.67397980  0.08264772  0.78010476    -0.93500
O1437       O  0.67702354  0.01024495  0.73378854    -0.89300
O1438       O  0.69100640  0.92505027  0.72488185    -0.82400
C1439       C  0.67180446  0.96197247  0.72604766     1.12700
O1440       O  0.82778045  0.11210542  0.70095574    -0.95500
Zr1441     Zr  0.79668949  0.03182371  0.71093350     1.88900
O1442       O  0.75820946  0.90829857  0.68201158    -0.72100
O1443       O  0.70939401  0.10272993  0.70733281    -0.51400
O1444       O  0.77570908  0.08956945  0.67450282    -0.96100
O1445       O  0.84769422  0.01204573  0.69430584    -0.53300
O1446       O  0.79085513  0.97622103  0.66829636    -0.72700
C1447       C  0.77560298  0.93386558  0.66299401     0.99700
O1448       O  0.71802657  0.83109796  0.72461758    -0.61500
O1449       O  0.82757677  0.89174840  0.82170460    -0.56300
O1450       O  0.76397314  0.82999596  0.74783143    -0.93000
O1451       O  0.80842131  0.84458035  0.76870384    -0.91400
O1452       O  0.75964049  0.90836880  0.85671665    -0.91700
O1453       O  0.70823540  0.88111800  0.82996208    -0.90500
C1454       C  0.78786623  0.81409514  0.75895471     1.18500
H1455       H  0.79790169  0.99003706  0.83319480     0.34500
H1456       H  0.69664867  0.95415811  0.77576596     0.45300
H1457       H  0.80590210  0.91881851  0.71584735     0.38900
H1458       H  0.77279656  0.12154276  0.73831184     0.35300
H1459       H  0.68596361  0.97207131  0.85922476     0.27100
H1460       H  0.68962111  0.11824163  0.71144564     0.33100
H1461       H  0.78609930  0.08067879  0.65531933     0.39000
H1462       H  0.74637973  0.91167768  0.87483321     0.33400
H1463       H  0.84590023  0.87299474  0.81538728     0.32300
H1464       H  0.86966011  0.89268596  0.76127850     0.34000
H1465       H  0.84732350  0.97331046  0.69013646     0.33000
H1466       H  0.70565819  0.86524420  0.81018311     0.36900
H1467       H  0.70064395  0.82829256  0.73908601     0.29700
H1468       H  0.80931396  0.17735823  0.82254185     0.33900
H1469       H  0.83422728  0.11059546  0.67964169     0.36800
H1470       H  0.83442087  0.91972884  0.83538977     0.29400
H1471       H  0.70950022  0.83547942  0.70503935     0.42200
H1472       H  0.68037295  0.09474427  0.79967565     0.32300
H1473       H  0.68287530  0.01455545  0.83417419     0.39900
H1474       H  0.85922976  0.01576060  0.71227197     0.31800
H1475       H  0.72352567  0.13386807  0.70614887     0.31800
H1476       H  0.82401874  0.17816999  0.79009152     0.32100
Zr1477     Zr  0.78985883  0.42489561  0.54835204     2.17500
O1478       O  0.81350469  0.34073288  0.55802118    -0.50300
O1479       O  0.77570551  0.41314489  0.60115094    -0.73500
O1480       O  0.84256076  0.43630530  0.55851891    -0.80200
O1481       O  0.72540690  0.35053671  0.51154690    -0.82000
O1482       O  0.85819128  0.52291777  0.55165261    -0.77600
O1483       O  0.76913723  0.33837616  0.53332603    -0.89300
O1484       O  0.74680569  0.48140619  0.61673563    -0.75200
O1485       O  0.79051202  0.51314978  0.56781219    -0.84700
O1486       O  0.73896155  0.44823405  0.55545665    -0.84400
O1487       O  0.81753769  0.47877101  0.51123276    -0.71200
O1488       O  0.76992899  0.42087120  0.00017028    -0.83300
Zr1489     Zr  0.74637146  0.58947959  0.49030896     2.26400
Zr1490     Zr  0.81713869  0.56773991  0.53066851     2.06300
Zr1491     Zr  0.71925916  0.44590033  0.50731416     2.10000
Zr1492     Zr  0.73963372  0.53683431  0.57420625     1.78800
O1493       O  0.70075347  0.40213023  0.96360297    -0.92100
O1494       O  0.75843730  0.59688700  0.61168363    -0.39900
O1495       O  0.71872784  0.53470659  0.52667476    -0.76500
O1496       O  0.76640365  0.59321844  0.53862860    -0.95200
O1497       O  0.79709281  0.56558304  0.98270266    -0.88500
O1498       O  0.74555644  0.50132965  0.97063342    -0.91400
C1499       C  0.76032980  0.43829245  0.62108353     1.02400
C1500       C  0.74564003  0.32106887  0.52103191     1.15300
C1501       C  0.86242723  0.47425111  0.55856087     1.06100
O1502       O  0.83442252  0.61984852  0.57206145    -0.93500
O1503       O  0.81455417  0.66272426  0.52039841    -0.89300
O1504       O  0.77168348  0.67614525  0.49721677    -0.82400
C1505       C  0.79580205  0.69278936  0.50869061     1.12700
O1506       O  0.82934410  0.40333952  0.95379247    -0.95500
Zr1507     Zr  0.79620295  0.47697889  0.96399267     1.88900
O1508       O  0.75732436  0.59882625  0.93699512    -0.72100
O1509       O  0.86105613  0.58971862  0.49831353    -0.51400
O1510       O  0.84543799  0.50881411  0.94492613    -0.96100
O1511       O  0.77659938  0.41271585  0.92908073    -0.53300
O1512       O  0.78698070  0.53131736  0.92160989    -0.72700
C1513       C  0.77248452  0.57329713  0.91708713     0.99700
O1514       O  0.72068685  0.67357315  0.48798738    -0.61500
O1515       O  0.67578589  0.41683184  0.53864892    -0.56300
O1516       O  0.69336009  0.57833172  0.98118149    -0.93000
O1517       O  0.67743409  0.49233448  0.98977993    -0.91400
O1518       O  0.68915433  0.50957040  0.59161862    -0.91700
O1519       O  0.70886008  0.61390996  0.58344477    -0.90500
C1520       C  0.67329476  0.54060871  0.98223709     1.18500
H1521       H  0.72796933  0.42369460  0.56880473     0.34500
H1522       H  0.76543413  0.62871707  0.54669223     0.45300
H1523       H  0.73554906  0.49975097  0.95227717     0.38900
H1524       H  0.83762368  0.46694627  0.50759295     0.35300
H1525       H  0.74422828  0.59199790  0.62912608     0.27100
H1526       H  0.87408054  0.61173107  0.51074723     0.33100
H1527       H  0.84504573  0.50595731  0.92307915     0.39000
H1528       H  0.68824328  0.51690532  0.61317849     0.33400
H1529       H  0.66147874  0.40211761  0.52468280     0.32300
H1530       H  0.68223051  0.38270525  0.97087866     0.34000
H1531       H  0.76029667  0.43098670  0.91974210     0.33000
H1532       H  0.70483535  0.62725808  0.56344134     0.36900
H1533       H  0.71127983  0.67373313  0.46867574     0.29700
H1534       H  0.82146899  0.34431632  0.57794753     0.33900
H1535       H  0.83529935  0.40589021  0.93236558     0.36800
H1536       H  0.68210162  0.38526852  0.54962746     0.29400
H1537       H  0.70392996  0.67074888  0.50317528     0.42200
H1538       H  0.82762801  0.59885841  0.58992711     0.32300
H1539       H  0.77693053  0.58066244  0.61778193     0.39900
H1540       H  0.76632695  0.38466983  0.94172098     0.31800
H1541       H  0.87148371  0.55575858  0.49564478     0.31800
H1542       H  0.83128117  0.33971883  0.54406402     0.32100
Zr1543     Zr  0.99382528  0.58418522  0.79971607     2.17500
O1544       O  0.97212667  0.66681725  0.81788238    -0.50300
O1545       O  0.50691421  0.59181378  0.85179426    -0.73500
O1546       O  0.93927383  0.57763967  0.80810499    -0.80200
O1547       O  0.55980731  0.65950814  0.75795145    -0.82000
O1548       O  0.92228361  0.49359560  0.79781399    -0.77600
O1549       O  0.51441209  0.67029467  0.78178539    -0.89300
O1550       O  0.53608538  0.52331903  0.86333075    -0.75200
O1551       O  0.99037133  0.49435746  0.81731193    -0.84700
O1552       O  0.54420319  0.55830055  0.80328629    -0.84400
O1553       O  0.96875857  0.53502854  0.76196125    -0.71200
O1554       O  0.51774602  0.59114065  0.75085825    -0.83300
Zr1555     Zr  0.53884917  0.42313533  0.73535578     2.26400
Zr1556     Zr  0.96565862  0.44452282  0.77986596     2.06300
Zr1557     Zr  0.56767611  0.56384739  0.75432072     2.10000
Zr1558     Zr  0.54076482  0.46817468  0.82023339     1.78800
O1559       O  0.59057837  0.60343215  0.70888380    -0.92100
O1560       O  0.51649785  0.41086225  0.85873735    -0.39900
O1561       O  0.56447165  0.47354163  0.77169080    -0.76500
O1562       O  0.51564275  0.41663283  0.78483523    -0.95200
O1563       O  0.98916485  0.45093748  0.73096060    -0.88500
O1564       O  0.54339870  0.51274677  0.71717105    -0.91400
C1565       C  0.52269874  0.56619591  0.86962580     1.02400
C1566       C  0.53843054  0.68832469  0.76804297     1.15300
C1567       C  0.91827083  0.54212914  0.80568008     1.06100
O1568       O  0.94368326  0.39768995  0.82350644    -0.93500
O1569       O  0.97003568  0.34871486  0.77139324    -0.89300
O1570       O  0.51526178  0.33639612  0.74745390    -0.82400
C1571       C  0.99062737  0.31910479  0.76027038     1.12700
O1572       O  0.96796752  0.62423583  0.70724207    -0.95500
Zr1573     Zr  0.99358456  0.54109152  0.71394877     1.88900
O1574       O  0.52790683  0.41709384  0.68295290    -0.72100
O1575       O  0.92554779  0.41644080  0.74877598    -0.51400
O1576       O  0.94328023  0.52468478  0.69783277    -0.96100
O1577       O  0.51957419  0.59943298  0.67693873    -0.53300
O1578       O  0.49802808  0.48445310  0.67130223    -0.72700
C1579       C  0.51186147  0.44192882  0.66513677     0.99700
O1580       O  0.56151321  0.34168498  0.71660746    -0.61500
O1581       O  0.60810460  0.59780329  0.78353908    -0.56300
O1582       O  0.59342149  0.42726429  0.73281379    -0.93000
O1583       O  0.61105385  0.51140442  0.74175813    -0.91400
O1584       O  0.59212435  0.48367928  0.83337670    -0.91700
O1585       O  0.56644335  0.38542916  0.82765424    -0.90500
C1586       C  0.61465330  0.46205335  0.73561879     1.18500
H1587       H  0.55489386  0.58120937  0.81646420     0.34500
H1588       H  0.51620758  0.38159169  0.79354498     0.45300
H1589       H  0.55456259  0.51468746  0.69829668     0.38900
H1590       H  0.94951800  0.54864498  0.75824170     0.35300
H1591       H  0.53031826  0.41143234  0.87507406     0.27100
H1592       H  0.91004129  0.40024135  0.76276642     0.33100
H1593       H  0.94472304  0.53127811  0.67615455     0.39000
H1594       H  0.59150403  0.47992902  0.85524610     0.33400
H1595       H  0.62309585  0.61319292  0.76873947     0.32300
H1596       H  0.60315052  0.63370810  0.71557370     0.34000
H1597       H  0.03082450  0.57547988  0.66335628     0.33000
H1598       H  0.57427989  0.37545573  0.80757149     0.36900
H1599       H  0.57442426  0.35251661  0.69901497     0.29700
H1600       H  0.96071518  0.65740449  0.83664712     0.33900
H1601       H  0.96407515  0.62607531  0.68589658     0.36800
H1602       H  0.60013324  0.62908385  0.79427997     0.29400
H1603       H  0.57537270  0.33061757  0.73164674     0.42200
H1604       H  0.94461105  0.42395869  0.83977464     0.32300
H1605       H  0.49919381  0.43094963  0.86655898     0.39900
H1606       H  0.53503156  0.61874919  0.68785979     0.31800
H1607       H  0.91696713  0.45006039  0.74217313     0.31800
H1608       H  0.95688373  0.67586447  0.80379837     0.32100
C1609       C  0.61568824  0.93260284  0.72218565    -0.12200
C1610       C  0.64149776  0.94706123  0.72126356    -0.13800
C1611       C  0.54268021  0.79058860  0.75405857    -0.12200
C1612       C  0.54068809  0.74454281  0.76192932    -0.13800
C1613       C  0.53560611  0.91676145  0.63997544    -0.12200
C1614       C  0.53927557  0.90751764  0.66571659    -0.13800
C1615       C  0.74223517  0.26465930  0.51616994    -0.12200
C1616       C  0.73916959  0.21855729  0.00901435    -0.13800
C1617       C  0.74689738  0.10101863  0.92099286    -0.12200
C1618       C  0.75189600  0.08661113  0.89584841    -0.13800
C1619       C  0.67335479  0.05893957  0.99285684    -0.12200
C1620       C  0.65022048  0.03339691  0.99523608    -0.13800
C1621       C  0.00795264  0.42029943  0.63623671    -0.12200
C1622       C  0.00070910  0.40684367  0.61201841    -0.13800
C1623       C  0.89227670  0.45981106  0.56398723    -0.12200
C1624       C  0.91702638  0.44253576  0.56349185    -0.13800
C1625       C  0.97650745  0.29164796  0.52681385    -0.12200
C1626       C  0.97840029  0.24528186  0.51998714    -0.13800
C1627       C  0.76338421  0.02589903  0.50986232    -0.12200
C1628       C  0.77241430  0.98465751  0.51880155    -0.13800
C1629       C  0.78508073  0.90314741  0.60783824    -0.12200
C1630       C  0.77898877  0.91392729  0.63337533    -0.13800
C1631       C  0.80429014  0.79605299  0.51744605    -0.12200
C1632       C  0.80122031  0.74957773  0.51080444    -0.13800
C1633       C  0.88290469  0.99304801  0.53998175    -0.12200
C1634       C  0.86072631  0.96458858  0.54180230    -0.13800
C1635       C  0.73625790  0.28346541  0.76393322    -0.12200
C1636       C  0.73919109  0.23785702  0.77144392    -0.13800
C1637       C  0.64454029  0.44337805  0.73377000    -0.12200
C1638       C  0.66906877  0.42564871  0.73493224    -0.13800
C1639       C  0.75139923  0.40253922  0.67588060    -0.12200
C1640       C  0.75712475  0.41652840  0.65056554    -0.13800
C1641       C  0.52412349  0.52309119  0.51288810    -0.12200
C1642       C  0.51030454  0.48410211  0.52265602    -0.13800
C1643       C  0.61822376  0.56859218  0.97525937    -0.12200
C1644       C  0.64344552  0.55405688  0.97623360    -0.13800
C1645       C  0.52708819  0.58703145  0.89866700    -0.12200
C1646       C  0.53476958  0.59901538  0.92300405    -0.13800
C1647       C  0.55550001  0.71645753  0.00765523    -0.12200
C1648       C  0.55351591  0.76325080  0.51299752    -0.13800
C1649       C  0.51179010  0.02443830  0.76857385    -0.12200
C1650       C  0.52338645  0.98571705  0.75759090    -0.13800
C1651       C  0.98753755  0.26272127  0.76544429    -0.12200
C1652       C  0.98648618  0.21678493  0.77352084    -0.13800
C1653       C  0.91802270  0.06785392  0.80362110    -0.12200
C1654       C  0.89240615  0.05251869  0.80413704    -0.13800
C1655       C  0.99632814  0.08767367  0.88728071    -0.12200
C1656       C  0.99285471  0.09811323  0.86155271    -0.13800
C1657       C  0.77312602  0.51782053  0.77396503    -0.12200
C1658       C  0.76091933  0.47782754  0.76534063    -0.13800
C1659       C  0.79147166  0.75795416  0.76260167    -0.12200
C1660       C  0.79528800  0.71282712  0.77043520    -0.13800
C1661       C  0.88800159  0.55960658  0.80869585    -0.12200
C1662       C  0.86324310  0.57643519  0.80679247    -0.13800
C1663       C  0.77906783  0.60379529  0.86148233    -0.12200
C1664       C  0.77402074  0.59278961  0.88725037    -0.13800
loop_ 
_geom_bond_atom_site_label_1 
_geom_bond_atom_site_label_2 
_geom_bond_distance 
_geom_bond_site_symmetry_2 
_ccdc_geom_bond_type 
C1            C2   1.538       .  S
C1            C7   1.533       .  S
C1            C5   1.531       .  S
C1          C412   1.466       .  S
C2            H9   1.086       .  S
C2            C3   1.367       .  D
C3            C4   1.538       .  S
C3          C414   1.450       .  S
C4            C8   1.535       .  S
C4            C6   1.538       .  S
C4           H10   1.112       .  S
C5           H11   1.087       .  S
C5            C6   1.363       .  D
C6          C409   1.439       .  S
C7           H12   1.087       .  S
C7            C8   1.360       .  D
C8          C415   1.436       .  S
C13          C14   1.539       .  S
C13          C19   1.526       .  S
C13          C17   1.535       .  S
C13         C404   1.467       .  S
C14          H21   1.086       .  S
C14          C15   1.367       .  D
C15          C16   1.538       .  S
C15         C408   1.448       .  S
C16          C20   1.536       .  S
C16          C18   1.545       .  S
C16          H22   1.111       .  S
C17         H855   1.086       .  S
C17          C18   1.366       .  D
C18        C1233   1.451       .  S
C19          H24   1.087       .  S
C19          C20   1.358       .  D
C20         C405   1.434       .  S
H23         C849   1.086       .  S
C25          C26   1.535       .  S
C25          C31   1.524       .  S
C25          C29   1.538       .  S
C25         C399   1.464       .  S
C26          H33   1.087       .  S
C26          C27   1.361       .  D
C27          C28   1.540       .  S
C27         C398   1.443       .  S
C28          C32   1.543       .  S
C28          C30   1.540       .  S
C28          H34   1.112       .  S
C29         H451   1.086       .  S
C29          C30   1.369       .  D
C30         C809   1.448       .  S
C31          H36   1.087       .  S
C31          C32   1.359       .  D
C32         C395   1.440       .  S
H35         C445   1.086       .  S
C37          C38   1.537       .  S
C37          C43   1.534       .  S
C37          C41   1.532       .  S
C37         C387   1.467       .  S
C38          H45   1.087       .  S
C38          C39   1.363       .  D
C39          C40   1.535       .  S
C39         C391   1.441       .  S
C40          C44   1.536       .  S
C40          C42   1.537       .  S
C40          H46   1.112       .  S
C41          H47   1.087       .  S
C41          C42   1.363       .  D
C42         C410   1.439       .  S
C43          H48   1.087       .  S
C43          C44   1.364       .  D
C44         C390   1.442       .  S
C49          C50   1.534       .  S
C49          C55   1.542       .  S
C49          C53   1.538       .  S
C49         C383   1.475       .  S
C50          H57   1.087       .  S
C50          C51   1.359       .  D
C51          C52   1.533       .  S
C51         C381   1.438       .  S
C52          C56   1.527       .  S
C52          C54   1.525       .  S
C52          H58   1.112       .  S
C53          H59   1.086   1_554  S
C53          C54   1.366       .  D
C54         C380   1.431       .  S
C55          H60   1.086       .  S
C55          C56   1.371       .  D
C56         C386   1.443       .  S
C61          C62   1.529       .  S
C61          C67   1.537       .  S
C61          C65   1.540       .  S
C61         C377   1.473       .  S
C62          H69   1.087       .  S
C62          C63   1.362       .  D
C63          C64   1.539       .  S
C63         C376   1.442       .  S
C64          C68   1.536       .  S
C64          C66   1.537       .  S
C64          H70   1.112       .  S
C65         H903   1.086       .  S
C65          C66   1.369       .  D
C66        C1226   1.448       .  S
C67          H72   1.087       .  S
C67          C68   1.363       .  D
C68         C374   1.440       .  S
H71         C897   1.086   1_455  S
C73          C74   1.538       .  S
C73          C79   1.535       .  S
C73         C493   1.538       .  S
C73         C368   1.470       .  S
C74          H81   1.086       .  S
C74          C75   1.366       .  D
C75          C76   1.527       .  S
C75         C371   1.438       .  S
C76          C80   1.532       .  S
C76          C78   1.525       .  S
C76          H82   1.112       .  S
C77         C489   1.538   1_554  S
C77          H83   1.086       .  S
C77         C494   1.367   1_554  D
C78         C493   1.367       .  D
C78         C795   1.431       .  S
C79          H84   1.087       .  S
C79          C80   1.361       .  D
C80         C369   1.438       .  S
C85          C86   1.529       .  S
C85          C91   1.534       .  S
C85          C89   1.535       .  S
C85         C363   1.467       .  S
C86          H93   1.087       .  S
C86          C87   1.360       .  D
C87          C88   1.536       .  S
C87         C361   1.437       .  S
C88          C92   1.538       .  S
C88          C90   1.544       .  S
C88          H94   1.112       .  S
C89          H95   1.086       .  S
C89          C90   1.367       .  D
C90         C402   1.451       .  S
C91          H96   1.087       .  S
C91          C92   1.363       .  D
C92         C366   1.441       .  S
Zr97         O98   2.440       .  S
Zr97        O103   2.456       .  S
Zr97        O515   2.467       .  S
Zr97        O516   2.473       .  S
Zr97        O521   2.387       .  S
Zr97        O938   2.387       .  S
Zr97        O523   2.416   1_545  S
Zr97        O940   2.412   1_545  S
O98         H154   0.990       .  S
O98         H162   0.991       .  S
O99        Zr513   2.467   1_554  S
O99         C119   1.288       .  A
O100       Zr513   2.473   1_554  S
O100        C121   1.290       .  A
O101       Zr111   2.419       .  S
O101        C952   1.280       .  A
O102       Zr110   2.409       .  S
O102        C121   1.278   1_565  A
O103        C120   1.287       .  A
O104       Zr944   2.389       .  S
O104        C119   1.273       .  A
O105       Zr110   2.398   1_545  S
O105       Zr513   2.387   1_554  S
O105       Zr944   2.384       .  S
O106       Zr111   2.399       .  S
O106       Zr929   2.387   1_455  S
O106       Zr528   2.384       .  S
O106        H141   0.965       .  S
O107       Zr110   2.402       .  S
O107       Zr513   2.416   1_564  S
O107      Zr1375   2.369   1_554  S
O107        H144   0.963       .  S
O108       Zr111   2.382   1_565  S
O108       Zr127   2.392   1_455  S
O108       Zr929   2.412   1_465  S
Zr109       O134   2.440       .  S
Zr109       O128   2.456       .  S
Zr109       O136   2.465       .  S
Zr109       O124   2.459       .  S
Zr109       O115   2.390   1_565  S
Zr109       O116   2.414   1_565  S
Zr109       O117   2.378       .  S
Zr109       O534   2.395   1_554  S
Zr110       O129   2.439       .  S
Zr110       O122   2.435   1_565  S
Zr110       O955   2.417       .  S
Zr110       O948   2.394   1_565  S
Zr110       O949   2.395       .  S
Zr111       O113   2.436   1_545  S
Zr111       O135   2.439       .  S
Zr111       O137   2.410       .  S
Zr111       O118   2.397   1_545  S
Zr111       O531   2.379       .  S
Zr112       O138   2.437       .  S
Zr112       O139   2.436       .  S
Zr112       O114   2.437       .  S
Zr112       O936   2.389       .  S
Zr112       O115   2.366       .  S
Zr112       O116   2.387       .  S
Zr112       O937   2.384   1_455  S
Zr112       O522   2.384   1_554  S
O113        H150   0.990       .  S
O114        H145   0.990       .  S
O114        H991   0.990       .  S
O115       Zr527   2.379   1_554  S
O116       Zr942   2.394   1_445  S
O116        H142   0.965       .  S
O117       Zr942   2.395   1_455  S
O117       Zr543   2.385   1_454  S
O118       Zr127   2.383   1_455  S
O118       Zr525   2.395       .  S
O118        H143   0.967       .  S
C119        C378   1.437       .  S
C120        O933   1.280       .  A
C120        C407   1.441       .  S
C121        C385   1.432   1_545  S
O122        H158   0.990       .  S
O123       Zr942   2.417   1_455  S
O123        C125   1.280       .  A
O124        C125   1.286       .  A
C125        C365   1.435       .  S
O126       Zr959   2.440       .  S
O126        H155   0.990       .  S
Zr127       O131   2.441   1_655  S
Zr127       O958   2.440       .  S
Zr127      O1378   2.439       .  S
Zr127       O132   2.391   1_655  S
Zr127      O1355   2.369       .  S
Zr127       O533   2.385   1_655  S
O128        C133   1.285       .  A
O129        H146   0.990       .  S
O129        H161   0.991       .  S
O130      Zr1375   2.439   1_554  S
O130        H563   0.990       .  S
O131        H151   0.990       .  S
O131        H160   0.989       .  S
O132        C549   1.274       .  A
C133        O548   1.274   1_554  A
C133        C400   1.430       .  S
O134        H153   0.991       .  S
O134        H157   0.989       .  S
O135        H149   0.990       .  S
O135        H156   0.991       .  S
O136        C556   1.289   1_564  A
O137        C140   1.279       .  A
O138        H148   0.990       .  S
O139        H152   0.990       .  S
C140        O552   1.289   1_545  A
C140        C372   1.429       .  S
H147        O546   0.990       .  S
H159        O946   0.990       .  S
Zr163       O164   2.440       .  S
Zr163       O165   2.439       .  S
Zr163       O166   2.451       .  S
Zr163       O169   2.444       .  S
Zr163       O171   2.380       .  S
Zr163       O172   2.385   1_545  S
Zr163       O173   2.408       .  S
Zr163       O174   2.399       .  S
O164        H220   0.990       .  S
O164        H228   0.990       .  S
O165        C185   1.282       .  A
O166        C187   1.285       .  A
O167       Zr177   2.407       .  S
O167        C186   1.278   1_565  A
O168       Zr176   2.420       .  S
O168        C187   1.280       .  A
O169        C186   1.285       .  A
O170       Zr178   2.408   1_545  S
O170        C185   1.277       .  A
O171       Zr176   2.395       .  S
O171       Zr178   2.382   1_545  S
O172       Zr177   2.396       .  S
O172       Zr178   2.376       .  S
O172        H207   0.966       .  S
O173       Zr176   2.397       .  S
O173       Zr193   2.384       .  S
O173        H210   0.965       .  S
O174       Zr177   2.388   1_545  S
O174       Zr193   2.386       .  S
Zr175       O200   2.443       .  S
Zr175       O194   2.447       .  S
Zr175       O202   2.447       .  S
Zr175       O190   2.453       .  S
Zr175       O181   2.402       .  S
Zr175       O182   2.413       .  S
Zr175       O183   2.381   1_565  S
Zr175       O184   2.383       .  S
Zr176       O195   2.435       .  S
Zr176       O188   2.436       .  S
Zr176       O189   2.414       .  S
Zr176       O182   2.403   1_545  S
Zr176       O183   2.397       .  S
Zr177       O179   2.435       .  S
Zr177       O201   2.438       .  S
Zr177       O203   2.410       .  S
Zr177       O181   2.386       .  S
Zr177       O184   2.390       .  S
Zr178       O204   2.434       .  S
Zr178       O205   2.434       .  S
Zr178       O180   2.436       .  S
Zr178       O181   2.387       .  S
Zr178       O182   2.385       .  S
O179        H216   0.990       .  S
O180        H211   0.990       .  S
O180        H225   0.990   1_565  S
O182        H208   0.964       .  S
O183       Zr193   2.383       .  S
O184       Zr193   2.380   1_565  S
O184        H209   0.967       .  S
C185        C370   1.432       .  S
C186        C406   1.428       .  S
C187        C388   1.433       .  S
O188        H224   0.990       .  S
O189        C191   1.279   1_545  A
O190        C191   1.285       .  A
C191        C362   1.430       .  S
O192       Zr193   2.440       .  S
O192        H221   0.990       .  S
Zr193       O196   2.437       .  S
Zr193       O197   2.440       .  S
Zr193       O198   2.402   1_545  S
O194        C199   1.284       .  A
O195        H212   0.990       .  S
O195        H227   0.990       .  S
O196        H213   0.990       .  S
O197        H217   0.990   1_545  S
O197        H226   0.990       .  S
O198        C199   1.276       .  A
C199        C382   1.431       .  S
O200        H219   0.991       .  S
O200        H223   0.990       .  S
O201        H215   0.990       .  S
O201        H222   0.990       .  S
O202        C206   1.285       .  A
O203        C206   1.279       .  A
O204        H214   0.990       .  S
O205        H218   0.990       .  S
C206        C411   1.432       .  S
Zr229       O230   2.442       .  S
Zr229       O231   2.447       .  S
Zr229       O232   2.447       .  S
Zr229       O235   2.447       .  S
Zr229       O237   2.384       .  S
Zr229       O238   2.385       .  S
Zr229       O239   2.413       .  S
Zr229       O656   2.400       .  S
O230        H286   0.990       .  S
O230        H294   0.991       .  S
O231        C251   1.284       .  A
O232        C253   1.284       .  A
O233       Zr243   2.424       .  S
O233        C252   1.281       .  A
O234       Zr242   2.427       .  S
O234        C253   1.281       .  A
O235        C252   1.285       .  A
O236       Zr244   2.409       .  S
O236        C251   1.277       .  A
O237       Zr242   2.402       .  S
O237       Zr244   2.384       .  S
O238       Zr243   2.393       .  S
O238       Zr244   2.380       .  S
O238        H273   0.965       .  S
O239       Zr242   2.400       .  S
O239       Zr675   2.387   1_554  S
O239        H276   0.965       .  S
O240       Zr259   2.388       .  S
O240       Zr645   2.400       .  S
O240       Zr659   2.387       .  S
Zr241       O266   2.441       .  S
Zr241       O256   2.450       .  S
Zr241       O676   2.439       .  S
Zr241       O684   2.449       .  S
Zr241       O247   2.402   1_556  S
Zr241       O248   2.408   1_556  S
Zr241       O665   2.383       .  S
Zr241       O666   2.385       .  S
Zr242       O261   2.437   1_554  S
Zr242       O254   2.433       .  S
Zr242       O255   2.433       .  S
Zr242       O248   2.397       .  S
Zr242       O665   2.392   1_554  S
Zr243       O267   2.438       .  S
Zr243       O661   2.436   1_554  S
Zr243       O685   2.413   1_554  S
Zr243       O247   2.396       .  S
Zr243       O656   2.387       .  S
Zr243       O666   2.394   1_554  S
Zr244       O270   2.436       .  S
Zr244       O271   2.437       .  S
Zr244       O246   2.438       .  S
Zr244       O247   2.391       .  S
Zr244       O248   2.384       .  S
O245       Zr659   2.436       .  S
O245        H282   0.990       .  S
O246        H277   0.990       .  S
O246        H291   0.990       .  S
O248        H274   0.964       .  S
O249       Zr259   2.380       .  S
O249       Zr657   2.383       .  S
O249       Zr658   2.392       .  S
O250       Zr259   2.380       .  S
O250       Zr657   2.385       .  S
O250       Zr659   2.394       .  S
O250        H275   0.965       .  S
C251        C392   1.435       .  S
C252        C367   1.437       .  S
C253        C375   1.435       .  S
O254        H290   0.990       .  S
O255        C257   1.283       .  A
O256        C257   1.286   1_556  A
C257        C384   1.441       .  S
O258       Zr259   2.439       .  S
O258        H287   0.990       .  S
Zr259       O262   2.439       .  S
Zr259       O263   2.438       .  S
Zr259       O264   2.408       .  S
Zr259       O655   2.387       .  S
O260       Zr657   2.439       .  S
O260        C265   1.283       .  A
O261        H278   0.991   1_556  S
O261        H293   0.990       .  S
O262        H279   0.990       .  S
O263        H283   0.990       .  S
O263        H292   0.990       .  S
O264        C265   1.278       .  A
C265        C416   1.429       .  S
O266        H285   0.990       .  S
O266        H289   0.990   1_556  S
O267        H281   0.990       .  S
O267        H288   0.990       .  S
O268       Zr657   2.449       .  S
O268        C272   1.285       .  A
O269       Zr659   2.413       .  S
O269        C272   1.278       .  A
O270        H280   0.990       .  S
O271        H284   0.990       .  S
C272        C396   1.435       .  S
Zr295       O296   2.443       .  S
Zr295       O298   2.461       .  S
Zr295      O1129   2.462       .  S
Zr295      O1133   2.439       .  S
Zr295       O303   2.383       .  S
Zr295       O305   2.416       .  S
Zr295      O1136   2.390       .  S
Zr295      O1138   2.402       .  S
O296        H352   0.989       .  S
O296        H360   0.992       .  S
O297      Zr1127   2.462   1_455  S
O297        C317   1.286       .  A
O298        C319   1.287       .  A
O299       Zr309   2.441       .  S
O299        C318   1.285       .  A
O300       Zr308   2.441       .  S
O300        C319   1.284       .  A
O301      Zr1127   2.439   1_455  S
O301        C318   1.283       .  A
O302       Zr310   2.395       .  S
O302        C317   1.274       .  A
O303       Zr308   2.407       .  S
O303      Zr1142   2.390       .  S
O304       Zr309   2.397       .  S
O304       Zr310   2.381       .  S
O304      Zr1127   2.390   1_455  S
O304        H339   0.965       .  S
O305       Zr308   2.404       .  S
O305       Zr325   2.384       .  S
O305        H342   0.963       .  S
O306       Zr309   2.381       .  S
O306      Zr1127   2.402   1_455  S
O306      Zr1157   2.380   1_455  S
Zr307       O332   2.444       .  S
Zr307       O326   2.448       .  S
Zr307       O334   2.449       .  S
Zr307       O322   2.436       .  S
Zr307       O313   2.398       .  S
Zr307       O314   2.415       .  S
Zr307       O316   2.388       .  S
Zr307      O1147   2.380   1_455  S
Zr308       O327   2.435       .  S
Zr308       O320   2.435       .  S
Zr308       O321   2.446       .  S
Zr308       O315   2.396       .  S
Zr308      O1146   2.398       .  S
Zr309       O311   2.436       .  S
Zr309       O333   2.439       .  S
Zr309       O335   2.429       .  S
Zr309       O313   2.391       .  S
Zr309       O316   2.404       .  S
Zr310       O336   2.436       .  S
Zr310       O337   2.438       .  S
Zr310       O312   2.438       .  S
Zr310       O313   2.384       .  S
Zr310       O314   2.372       .  S
Zr310      O1135   2.390   1_455  S
O311        H348   0.990       .  S
O312        H343   0.991       .  S
O312        H357   0.990   1_455  S
O314      Zr1140   2.398   1_455  S
O314        H340   0.963       .  S
O315       Zr325   2.384       .  S
O315      Zr1139   2.380       .  S
O316      Zr1157   2.384   1_455  S
O316        H341   0.965       .  S
C317        C397   1.435       .  S
C318        C364   1.435       .  S
C319        C413   1.443       .  S
O320        H356   0.990       .  S
O321        C323   1.287       .  A
O322       C1155   1.283   1_455  A
C323       O1154   1.283       .  A
C323        C403   1.433       .  S
O324       Zr325   2.440       .  S
O324        H353   0.990       .  S
Zr325       O328   2.438       .  S
Zr325      O1161   2.439       .  S
Zr325      O1162   2.400       .  S
Zr325      O1138   2.380       .  S
Zr325      O1148   2.384       .  S
O326        C331   1.283       .  A
O327        H344   0.990       .  S
O327        H359   0.990       .  S
O328        H345   0.990       .  S
O329      Zr1157   2.439   1_455  S
O329        H358   0.990       .  S
O329       H1181   0.990       .  S
O330      Zr1157   2.400       .  S
O330        C331   1.275   1_655  A
C331       C1205   1.433       .  S
O332        H351   0.989       .  S
O332        H355   0.992       .  S
O333        H347   0.990       .  S
O333        H354   0.990       .  S
O334        C338   1.284       .  A
O335        C338   1.282       .  A
O336        H346   0.990       .  S
O337        H350   0.990       .  S
C338        C389   1.435       .  S
H349       O1161   0.990       .  S
C361        C362   1.203       .  T
C363        C364   1.206       .  T
C365        C366   1.206       .  T
C367        C784   1.207       .  T
C368        C783   1.207       .  T
C369        C370   1.204       .  T
C371        C372   1.203       .  T
C373       C1163   1.433       .  S
C373        C374   1.205       .  T
C375        C376   1.206       .  T
C377        C378   1.208       .  T
C379        C494   1.431   1_554  S
C379        C380   1.200   1_545  T
C381        C382   1.204       .  T
C383        C384   1.210       .  T
C385        C386   1.206       .  T
C387        C388   1.205       .  T
C389        C390   1.206       .  T
C391        C392   1.206       .  T
C393        C446   1.448       .  S
C393        C394   1.210       .  T
C394        C898   1.448   1_455  S
C395        C396   1.205       .  T
C397        C398   1.206       .  T
C399        C816   1.204       .  T
C400        C815   1.204       .  T
C401        C850   1.451   1_455  S
C401        C402   1.211   1_545  T
C403        C404   1.206       .  T
C405        C406   1.202       .  T
C407        C408   1.210       .  T
C409        C410   1.204       .  T
C411        C412   1.205       .  T
C413        C414   1.211       .  T
C415        C416   1.202       .  T
C417        C418   1.538       .  S
C417        C423   1.533       .  S
C417        C421   1.531       .  S
C417        C828   1.466       .  S
C418        H425   1.086       .  S
C418        C419   1.367       .  D
C419        C420   1.538       .  S
C419        C830   1.450       .  S
C420        C424   1.535       .  S
C420        C422   1.538       .  S
C420        H426   1.112       .  S
C421        H427   1.087       .  S
C421        C422   1.363       .  D
C422        C825   1.439       .  S
C423        H428   1.087       .  S
C423        C424   1.360       .  D
C424        C831   1.436       .  S
C429        C430   1.539       .  S
C429        C435   1.526       .  S
C429        C433   1.535       .  S
C429        C820   1.467       .  S
C430        H437   1.086       .  S
C430        C431   1.367       .  D
C431        C432   1.538       .  S
C431        C824   1.448       .  S
C432        C436   1.536       .  S
C432        C434   1.545       .  S
C432        H438   1.111       .  S
C433       H1271   1.086       .  S
C433        C434   1.366       .  D
C434       C1649   1.451       .  S
C435        H440   1.087       .  S
C435        C436   1.358       .  D
C436        C821   1.434       .  S
H439       C1265   1.086       .  S
C441        C442   1.535       .  S
C441        C447   1.524       .  S
C441        C445   1.538   1_556  S
C441        C815   1.464   1_556  S
C442        H449   1.087       .  S
C442        C443   1.361       .  D
C443        C444   1.540       .  S
C443        C814   1.443       .  S
C444        C448   1.543       .  S
C444        C446   1.540   1_556  S
C444        H450   1.112       .  S
C445        C446   1.369       .  D
C447        H452   1.087       .  S
C447        C448   1.359       .  D
C448        C811   1.440       .  S
C453        C454   1.537       .  S
C453        C459   1.534       .  S
C453        C457   1.532       .  S
C453        C803   1.467       .  S
C454        H461   1.087       .  S
C454        C455   1.363       .  D
C455        C456   1.535       .  S
C455        C807   1.441       .  S
C456        C460   1.536       .  S
C456        C458   1.537       .  S
C456        H462   1.112       .  S
C457        H463   1.087       .  S
C457        C458   1.363       .  D
C458        C826   1.439       .  S
C459        H464   1.087       .  S
C459        C460   1.364       .  D
C460        C806   1.442       .  S
C465        C466   1.534       .  S
C465        C471   1.542       .  S
C465        C469   1.538       .  S
C465        C799   1.475       .  S
C466        H473   1.087       .  S
C466        C467   1.359       .  D
C467        C468   1.533       .  S
C467        C797   1.438       .  S
C468        C472   1.527       .  S
C468        C470   1.525       .  S
C468        H474   1.112       .  S
C469        H475   1.086       .  S
C469        C470   1.366       .  D
C470        C796   1.431       .  S
C471        H476   1.086       .  S
C471        C472   1.371       .  D
C472        C802   1.443       .  S
C477        C478   1.529       .  S
C477        C483   1.537       .  S
C477        C481   1.540       .  S
C477        C793   1.473       .  S
C478        H485   1.087       .  S
C478        C479   1.362       .  D
C479        C480   1.539       .  S
C479        C792   1.442       .  S
C480        C484   1.536       .  S
C480        C482   1.537       .  S
C480        H486   1.112       .  S
C481       H1319   1.086       .  S
C481        C482   1.369       .  D
C482       C1642   1.448       .  S
C483        H488   1.087       .  S
C483        C484   1.363       .  D
C484        C790   1.440       .  S
H487       C1313   1.086   1_455  S
C489        C490   1.538   1_556  S
C489        C495   1.535       .  S
C489        C784   1.470   1_556  S
C490        H497   1.086       .  S
C490        C491   1.366   1_554  D
C491        C492   1.527       .  S
C491        C787   1.438       .  S
C492        C496   1.532       .  S
C492        C494   1.525       .  S
C492        H498   1.112       .  S
C493        H499   1.086       .  S
C495        H500   1.087       .  S
C495        C496   1.361       .  D
C496        C785   1.438       .  S
C501        C502   1.529       .  S
C501        C507   1.534       .  S
C501        C505   1.535       .  S
C501        C779   1.467       .  S
C502        H509   1.087       .  S
C502        C503   1.360       .  D
C503        C504   1.536       .  S
C503        C777   1.437       .  S
C504        C508   1.538       .  S
C504        C506   1.544       .  S
C504        H510   1.112       .  S
C505        H511   1.086       .  S
C505        C506   1.367       .  D
C506        C818   1.451       .  S
C507        H512   1.087       .  S
C507        C508   1.363       .  D
C508        C782   1.441       .  S
Zr513       O514   2.440       .  S
Zr513       O519   2.456       .  S
Zr513      O1354   2.387       .  S
Zr513      O1356   2.412   1_545  S
O514        H570   0.990       .  S
O514        H578   0.991       .  S
O515        C535   1.288       .  A
O516        C537   1.290       .  A
O517       Zr527   2.419       .  S
O517       C1368   1.280       .  A
O518       Zr526   2.409       .  S
O518        C537   1.278   1_565  A
O519        C536   1.287       .  A
O520      Zr1360   2.389       .  S
O520        C535   1.273       .  A
O521       Zr526   2.398   1_545  S
O521      Zr1360   2.384       .  S
O522      Zr1345   2.387   1_455  S
O522       Zr527   2.399       .  S
O522        H557   0.965       .  S
O523       Zr526   2.402       .  S
O523       Zr959   2.369       .  S
O523        H560   0.963       .  S
O524      Zr1345   2.412   1_465  S
O524       Zr527   2.382   1_565  S
O524       Zr543   2.392   1_455  S
Zr525       O550   2.440       .  S
Zr525       O544   2.456       .  S
Zr525       O552   2.465       .  S
Zr525       O540   2.459       .  S
Zr525       O531   2.390   1_565  S
Zr525       O532   2.414   1_565  S
Zr525       O533   2.378       .  S
Zr526       O545   2.439       .  S
Zr526       O538   2.435   1_565  S
Zr526      O1371   2.417       .  S
Zr526      O1364   2.394   1_565  S
Zr526      O1365   2.395       .  S
Zr527       O529   2.436   1_545  S
Zr527       O551   2.439       .  S
Zr527       O553   2.410       .  S
Zr527       O534   2.397   1_545  S
Zr528       O554   2.437       .  S
Zr528       O555   2.436       .  S
Zr528       O530   2.437       .  S
Zr528      O1352   2.389       .  S
Zr528      O1353   2.384   1_455  S
Zr528       O531   2.366       .  S
Zr528       O532   2.387       .  S
O529        H566   0.990       .  S
O530        H561   0.990       .  S
O530       H1407   0.990       .  S
O532      Zr1358   2.394   1_445  S
O532        H558   0.965       .  S
O533      Zr1358   2.395   1_455  S
O534       Zr543   2.383   1_455  S
O534        H559   0.967       .  S
C535        C794   1.437       .  S
C536       O1349   1.280       .  A
C536        C823   1.441       .  S
C537        C801   1.432   1_545  S
O538        H574   0.990       .  S
O539      Zr1358   2.417   1_455  S
O539        C541   1.280       .  A
O540        C541   1.286       .  A
C541        C781   1.435       .  S
O542      Zr1375   2.440       .  S
O542        H571   0.990       .  S
Zr543      O1374   2.440       .  S
Zr543       O962   2.439   1_556  S
Zr543       O547   2.441   1_655  S
Zr543       O548   2.391   1_655  S
Zr543       O939   2.369   1_556  S
O544        C549   1.285       .  A
O545        H562   0.990       .  S
O545        H577   0.991       .  S
O546       Zr959   2.439       .  S
O547        H567   0.990       .  S
O547        H576   0.989       .  S
C549        C816   1.430       .  S
O550        H569   0.991       .  S
O550        H573   0.989       .  S
O551        H565   0.990       .  S
O551        H572   0.991       .  S
O553        C556   1.279       .  A
O554        H564   0.990       .  S
O555        H568   0.990       .  S
C556        C788   1.429       .  S
H575       O1362   0.990       .  S
Zr579       O580   2.440       .  S
Zr579       O581   2.439       .  S
Zr579       O582   2.451       .  S
Zr579       O585   2.444       .  S
Zr579       O587   2.380       .  S
Zr579       O588   2.385   1_545  S
Zr579       O589   2.408       .  S
Zr579       O590   2.399       .  S
O580        H636   0.990       .  S
O580        H644   0.990       .  S
O581        C601   1.282       .  A
O582        C603   1.285       .  A
O583       Zr593   2.407       .  S
O583        C602   1.278   1_565  A
O584       Zr592   2.420       .  S
O584        C603   1.280       .  A
O585        C602   1.285       .  A
O586       Zr594   2.408   1_545  S
O586        C601   1.277       .  A
O587       Zr592   2.395       .  S
O587       Zr594   2.382   1_545  S
O588       Zr593   2.396       .  S
O588       Zr594   2.376       .  S
O588        H623   0.966       .  S
O589       Zr592   2.397       .  S
O589       Zr609   2.384       .  S
O589        H626   0.965       .  S
O590       Zr593   2.388   1_545  S
O590       Zr609   2.386       .  S
Zr591       O616   2.443       .  S
Zr591       O610   2.447       .  S
Zr591       O618   2.447       .  S
Zr591       O606   2.453       .  S
Zr591       O597   2.402       .  S
Zr591       O598   2.413       .  S
Zr591       O599   2.381   1_565  S
Zr591       O600   2.383       .  S
Zr592       O611   2.435       .  S
Zr592       O604   2.436       .  S
Zr592       O605   2.414       .  S
Zr592       O598   2.403   1_545  S
Zr592       O599   2.397       .  S
Zr593       O595   2.435       .  S
Zr593       O617   2.438       .  S
Zr593       O619   2.410       .  S
Zr593       O597   2.386       .  S
Zr593       O600   2.390       .  S
Zr594       O620   2.434       .  S
Zr594       O621   2.434       .  S
Zr594       O596   2.436       .  S
Zr594       O597   2.387       .  S
Zr594       O598   2.385       .  S
O595        H632   0.990       .  S
O596        H627   0.990       .  S
O596        H641   0.990   1_565  S
O598        H624   0.964       .  S
O599       Zr609   2.383       .  S
O600       Zr609   2.380   1_565  S
O600        H625   0.967       .  S
C601        C786   1.432       .  S
C602        C822   1.428       .  S
C603        C804   1.433       .  S
O604        H640   0.990       .  S
O605        C607   1.279   1_545  A
O606        C607   1.285       .  A
C607        C778   1.430       .  S
O608       Zr609   2.440       .  S
O608        H637   0.990       .  S
Zr609       O612   2.437       .  S
Zr609       O613   2.440       .  S
Zr609       O614   2.402   1_545  S
O610        C615   1.284       .  A
O611        H628   0.990       .  S
O611        H643   0.990       .  S
O612        H629   0.990       .  S
O613        H633   0.990   1_545  S
O613        H642   0.990       .  S
O614        C615   1.276       .  A
C615        C798   1.431       .  S
O616        H635   0.991       .  S
O616        H639   0.990       .  S
O617        H631   0.990       .  S
O617        H638   0.990       .  S
O618        C622   1.285       .  A
O619        C622   1.279       .  A
O620        H630   0.990       .  S
O621        H634   0.990       .  S
C622        C827   1.432       .  S
Zr645       O646   2.442       .  S
Zr645       O647   2.447       .  S
Zr645       O648   2.447       .  S
Zr645       O651   2.447       .  S
Zr645       O653   2.384       .  S
Zr645       O654   2.385       .  S
Zr645       O655   2.413       .  S
O646        H702   0.990       .  S
O646        H710   0.991       .  S
O647        C667   1.284       .  A
O648        C669   1.284       .  A
O649       Zr659   2.424       .  S
O649        C668   1.281       .  A
O650       Zr658   2.427       .  S
O650        C669   1.281       .  A
O651        C668   1.285       .  A
O652       Zr660   2.409       .  S
O652        C667   1.277       .  A
O653       Zr658   2.402       .  S
O653       Zr660   2.384       .  S
O654       Zr659   2.393       .  S
O654       Zr660   2.380       .  S
O654        H689   0.965       .  S
O655       Zr658   2.400       .  S
O655        H692   0.965       .  S
O656       Zr675   2.388   1_554  S
Zr657       O682   2.441       .  S
Zr657       O672   2.450       .  S
Zr657       O663   2.402       .  S
Zr657       O664   2.408       .  S
Zr658       O677   2.437       .  S
Zr658       O670   2.433       .  S
Zr658       O671   2.433       .  S
Zr658       O664   2.397       .  S
Zr659       O683   2.438       .  S
Zr659       O663   2.396       .  S
Zr660       O686   2.436       .  S
Zr660       O687   2.437       .  S
Zr660       O662   2.438       .  S
Zr660       O663   2.391       .  S
Zr660       O664   2.384       .  S
O661        H698   0.990       .  S
O662        H693   0.991       .  S
O662        H707   0.990       .  S
O664        H690   0.964       .  S
O665       Zr675   2.380       .  S
O666       Zr675   2.380       .  S
O666        H691   0.965       .  S
C667        C808   1.435       .  S
C668        C783   1.437       .  S
C669        C791   1.435       .  S
O670        H706   0.990       .  S
O671        C673   1.283       .  A
O672        C673   1.286       .  A
C673        C800   1.441       .  S
O674       Zr675   2.439       .  S
O674        H703   0.990       .  S
Zr675       O678   2.439       .  S
Zr675       O679   2.438       .  S
Zr675       O680   2.408       .  S
O676        C681   1.283       .  A
O677        H694   0.991       .  S
O677        H709   0.990       .  S
O678        H695   0.990       .  S
O679        H699   0.990       .  S
O679        H708   0.990       .  S
O680        C681   1.278       .  A
C681        C832   1.429       .  S
O682        H701   0.990       .  S
O682        H705   0.990       .  S
O683        H697   0.990       .  S
O683        H704   0.990       .  S
O684        C688   1.285       .  A
O685        C688   1.278       .  A
O686        H696   0.990       .  S
O687        H700   0.990       .  S
C688        C812   1.435       .  S
Zr711       O712   2.443       .  S
Zr711      O1545   2.462       .  S
Zr711       O714   2.461       .  S
Zr711      O1549   2.439       .  S
Zr711       O719   2.383       .  S
Zr711      O1552   2.390       .  S
Zr711       O721   2.416       .  S
Zr711      O1554   2.402       .  S
O712        H768   0.989       .  S
O712        H776   0.992       .  S
O713      Zr1543   2.462   1_455  S
O713        C733   1.286       .  A
O714        C735   1.287       .  A
O715       Zr725   2.441       .  S
O715        C734   1.285       .  A
O716       Zr724   2.441       .  S
O716        C735   1.284       .  A
O717      Zr1543   2.439   1_455  S
O717        C734   1.283       .  A
O718       Zr726   2.395       .  S
O718        C733   1.274       .  A
O719       Zr724   2.407       .  S
O719      Zr1558   2.390       .  S
O720      Zr1543   2.390   1_455  S
O720       Zr725   2.397       .  S
O720       Zr726   2.381       .  S
O720        H755   0.965       .  S
O721       Zr724   2.404       .  S
O721       Zr741   2.384       .  S
O721        H758   0.963       .  S
O722      Zr1543   2.402   1_455  S
O722       Zr725   2.381       .  S
O722      Zr1573   2.380   1_455  S
Zr723       O748   2.444       .  S
Zr723       O742   2.448       .  S
Zr723       O750   2.449       .  S
Zr723       O738   2.436       .  S
Zr723       O729   2.398       .  S
Zr723       O730   2.415       .  S
Zr723      O1563   2.380   1_455  S
Zr723       O732   2.388       .  S
Zr724       O743   2.435       .  S
Zr724       O736   2.435       .  S
Zr724       O737   2.446       .  S
Zr724      O1562   2.398       .  S
Zr724       O731   2.396       .  S
Zr725       O727   2.436       .  S
Zr725       O749   2.439       .  S
Zr725       O751   2.429       .  S
Zr725       O729   2.391       .  S
Zr725       O732   2.404       .  S
Zr726       O752   2.436       .  S
Zr726       O753   2.438       .  S
Zr726       O728   2.438       .  S
Zr726      O1551   2.390   1_455  S
Zr726       O729   2.384       .  S
Zr726       O730   2.372       .  S
O727        H764   0.990       .  S
O728        H759   0.991       .  S
O728        H773   0.990   1_455  S
O730      Zr1556   2.398   1_455  S
O730        H756   0.963       .  S
O731      Zr1555   2.380       .  S
O731       Zr741   2.384       .  S
O732      Zr1573   2.384   1_455  S
O732        H757   0.965       .  S
C733        C813   1.435       .  S
C734        C780   1.435       .  S
C735        C829   1.443       .  S
O736        H772   0.990       .  S
O737        C739   1.287       .  A
O738       C1571   1.283   1_455  A
C739       O1570   1.283       .  A
C739        C819   1.433       .  S
O740       Zr741   2.440       .  S
O740        H769   0.990       .  S
Zr741       O744   2.438       .  S
Zr741      O1577   2.439       .  S
Zr741      O1578   2.400       .  S
Zr741      O1554   2.380       .  S
Zr741      O1564   2.384       .  S
O742        C747   1.283       .  A
O743        H760   0.990       .  S
O743        H775   0.990       .  S
O744        H761   0.990       .  S
O745      Zr1573   2.439   1_455  S
O745       H1597   0.990       .  S
O745        H774   0.990       .  S
O746      Zr1573   2.400       .  S
O746        C747   1.275   1_655  A
C747       C1621   1.433       .  S
O748        H767   0.989       .  S
O748        H771   0.992       .  S
O749        H763   0.990       .  S
O749        H770   0.990       .  S
O750        C754   1.284       .  A
O751        C754   1.282       .  A
O752        H762   0.990       .  S
O753        H766   0.990       .  S
C754        C805   1.435       .  S
H765       O1577   0.990       .  S
C777        C778   1.203       .  T
C779        C780   1.206       .  T
C781        C782   1.206       .  T
C785        C786   1.204       .  T
C787        C788   1.203       .  T
C789       C1579   1.433       .  S
C789        C790   1.205       .  T
C791        C792   1.206       .  T
C793        C794   1.208       .  T
C795        C796   1.200   1_545  T
C797        C798   1.204       .  T
C799        C800   1.210       .  T
C801        C802   1.206       .  T
C803        C804   1.205       .  T
C805        C806   1.206       .  T
C807        C808   1.206       .  T
C809        C810   1.210       .  T
C810       C1314   1.448   1_455  S
C811        C812   1.205       .  T
C813        C814   1.206       .  T
C817       C1266   1.451   1_455  S
C817        C818   1.211   1_545  T
C819        C820   1.206       .  T
C821        C822   1.202       .  T
C823        C824   1.210       .  T
C825        C826   1.204       .  T
C827        C828   1.205       .  T
C829        C830   1.211       .  T
C831        C832   1.202       .  T
C833        C834   1.538       .  S
C833        C839   1.533       .  S
C833        C837   1.531       .  S
C833       C1244   1.466       .  S
C834        H841   1.086       .  S
C834        C835   1.367       .  D
C835        C836   1.538       .  S
C835       C1246   1.450       .  S
C836        C840   1.535       .  S
C836        C838   1.538       .  S
C836        H842   1.112       .  S
C837        H843   1.087       .  S
C837        C838   1.363       .  D
C838       C1241   1.439       .  S
C839        H844   1.087       .  S
C839        C840   1.360       .  D
C840       C1247   1.436       .  S
C845        C846   1.539       .  S
C845        C851   1.526       .  S
C845        C849   1.535   1_655  S
C845       C1236   1.467       .  S
C846        H853   1.086   1_655  S
C846        C847   1.367       .  D
C847        C848   1.538       .  S
C847       C1240   1.448       .  S
C848        C852   1.536       .  S
C848        C850   1.545       .  S
C848        H854   1.111       .  S
C849        C850   1.366   1_455  D
C851        H856   1.087       .  S
C851        C852   1.358       .  D
C852       C1237   1.434       .  S
C857        C858   1.535       .  S
C857        C863   1.524       .  S
C857        C861   1.538       .  S
C857       C1231   1.464       .  S
C858        H865   1.087       .  S
C858        C859   1.361       .  D
C859        C860   1.540       .  S
C859       C1230   1.443       .  S
C860        C864   1.543       .  S
C860        C862   1.540       .  S
C860        H866   1.112       .  S
C861       H1283   1.086       .  S
C861        C862   1.369       .  D
C862       C1641   1.448       .  S
C863        H868   1.087       .  S
C863        C864   1.359       .  D
C864       C1227   1.440       .  S
H867       C1277   1.086       .  S
C869        C870   1.537       .  S
C869        C875   1.534       .  S
C869        C873   1.532       .  S
C869       C1219   1.467       .  S
C870        H877   1.087       .  S
C870        C871   1.363       .  D
C871        C872   1.535       .  S
C871       C1223   1.441       .  S
C872        C876   1.536       .  S
C872        C874   1.537       .  S
C872        H878   1.112       .  S
C873        H879   1.087       .  S
C873        C874   1.363       .  D
C874       C1242   1.439       .  S
C875        H880   1.087       .  S
C875        C876   1.364       .  D
C876       C1222   1.442       .  S
C881        C882   1.534       .  S
C881        C887   1.542       .  S
C881        C885   1.538       .  S
C881       C1215   1.475       .  S
C882        H889   1.087       .  S
C882        C883   1.359       .  D
C883        C884   1.533       .  S
C883       C1213   1.438       .  S
C884        C888   1.527       .  S
C884        C886   1.525       .  S
C884        H890   1.112       .  S
C885        H891   1.086   1_554  S
C885        C886   1.366       .  D
C886       C1212   1.431       .  S
C887        H892   1.086       .  S
C887        C888   1.371       .  D
C888       C1218   1.443       .  S
C893        C894   1.529       .  S
C893        C899   1.537       .  S
C893        C897   1.540       .  S
C893       C1209   1.473       .  S
C894        H901   1.087       .  S
C894        C895   1.362       .  D
C895        C896   1.539       .  S
C895       C1208   1.442       .  S
C896        C900   1.536       .  S
C896        C898   1.537       .  S
C896        H902   1.112       .  S
C897        C898   1.369       .  D
C899        H904   1.087       .  S
C899        C900   1.363       .  D
C900       C1206   1.440   1_655  S
C905        C906   1.538       .  S
C905        C911   1.535       .  S
C905       C1325   1.538       .  S
C905       C1200   1.470       .  S
C906        H913   1.086       .  S
C906        C907   1.366       .  D
C907        C908   1.527       .  S
C907       C1203   1.438       .  S
C908        C912   1.532       .  S
C908        C910   1.525       .  S
C908        H914   1.112       .  S
C909       C1321   1.538   1_554  S
C909        H915   1.086       .  S
C909       C1326   1.367   1_554  D
C910       C1325   1.367       .  D
C910       C1627   1.431       .  S
C911        H916   1.087       .  S
C911        C912   1.361       .  D
C912       C1201   1.438       .  S
C917        C918   1.529       .  S
C917        C923   1.534       .  S
C917        C921   1.535       .  S
C917       C1195   1.467       .  S
C918        H925   1.087       .  S
C918        C919   1.360       .  D
C919        C920   1.536       .  S
C919       C1193   1.437       .  S
C920        C924   1.538       .  S
C920        C922   1.544       .  S
C920        H926   1.112       .  S
C921        H927   1.086       .  S
C921        C922   1.367       .  D
C922       C1234   1.451       .  S
C923        H928   1.087       .  S
C923        C924   1.363       .  D
C924       C1198   1.441       .  S
Zr929       O930   2.440       .  S
Zr929      O1347   2.467       .  S
Zr929      O1348   2.473       .  S
Zr929       O935   2.456       .  S
Zr929      O1353   2.387       .  S
Zr929      O1355   2.416   1_545  S
O930        H986   0.990       .  S
O930        H994   0.991       .  S
O931      Zr1345   2.467   1_554  S
O931        C951   1.288       .  A
O932      Zr1345   2.473   1_554  S
O932        C953   1.290       .  A
O933       Zr943   2.419       .  S
O934       Zr942   2.409       .  S
O934        C953   1.278   1_565  A
O935        C952   1.287   1_655  A
O936        C951   1.273   1_455  A
O937      Zr1345   2.387   1_554  S
O937       Zr942   2.398   1_545  S
O938       Zr943   2.399       .  S
O938      Zr1360   2.384       .  S
O938        H973   0.965       .  S
O939      Zr1345   2.416   1_564  S
O939       Zr942   2.402       .  S
O939        H976   0.963       .  S
O940       Zr943   2.382   1_565  S
O940       Zr959   2.392       .  S
Zr941       O966   2.440       .  S
Zr941       O960   2.456       .  S
Zr941       O968   2.465       .  S
Zr941       O956   2.459       .  S
Zr941       O947   2.390   1_565  S
Zr941       O948   2.414   1_565  S
Zr941       O949   2.378       .  S
Zr941      O1366   2.395   1_554  S
Zr942       O961   2.439       .  S
Zr942       O954   2.435   1_565  S
Zr943       O945   2.436   1_545  S
Zr943       O967   2.439       .  S
Zr943       O969   2.410       .  S
Zr943      O1363   2.379       .  S
Zr943       O950   2.397   1_545  S
Zr944       O970   2.437       .  S
Zr944       O971   2.436       .  S
Zr944       O946   2.437       .  S
Zr944      O1354   2.384   1_554  S
Zr944       O947   2.366       .  S
Zr944       O948   2.387       .  S
O945        H982   0.990       .  S
O946        H977   0.990       .  S
O947      Zr1359   2.379   1_554  S
O948        H974   0.965       .  S
O949      Zr1375   2.385   1_554  S
O950      Zr1357   2.395       .  S
O950       Zr959   2.383       .  S
O950        H975   0.967       .  S
C951       C1210   1.437       .  S
C952       C1239   1.441   1_455  S
C953       C1217   1.432   1_545  S
O954        H990   0.990       .  S
O955        C957   1.280       .  A
O956        C957   1.286       .  A
C957       C1197   1.435       .  S
O958        H987   0.990       .  S
Zr959       O963   2.441       .  S
Zr959       O964   2.391       .  S
Zr959      O1365   2.385       .  S
O960        C965   1.285       .  A
O961        H978   0.990       .  S
O961        H993   0.991       .  S
O962       H1395   0.990       .  S
O963        H983   0.990       .  S
O963        H992   0.989       .  S
O964       C1381   1.274       .  A
C965       O1380   1.274   1_554  A
C965       C1232   1.430       .  S
O966        H985   0.991       .  S
O966        H989   0.989       .  S
O967        H981   0.990       .  S
O967        H988   0.991       .  S
O968       C1388   1.289   1_564  A
O969        C972   1.279       .  A
O970        H980   0.990       .  S
O971        H984   0.990       .  S
C972       O1384   1.289   1_545  A
C972       C1204   1.429       .  S
H979       O1378   0.990       .  S
Zr995       O996   2.440       .  S
Zr995       O997   2.439       .  S
Zr995       O998   2.451       .  S
Zr995      O1001   2.444       .  S
Zr995      O1003   2.380       .  S
Zr995      O1004   2.385   1_545  S
Zr995      O1005   2.408       .  S
Zr995      O1006   2.399       .  S
O996       H1052   0.990       .  S
O996       H1060   0.990       .  S
O997       C1017   1.282       .  A
O998       C1019   1.285       .  A
O999      Zr1009   2.407       .  S
O999       C1018   1.278   1_565  A
O1000     Zr1008   2.420       .  S
O1000      C1019   1.280       .  A
O1001      C1018   1.285       .  A
O1002     Zr1010   2.408   1_545  S
O1002      C1017   1.277       .  A
O1003     Zr1008   2.395       .  S
O1003     Zr1010   2.382   1_545  S
O1004     Zr1009   2.396       .  S
O1004     Zr1010   2.376       .  S
O1004      H1039   0.966       .  S
O1005     Zr1008   2.397       .  S
O1005     Zr1025   2.384       .  S
O1005      H1042   0.965       .  S
O1006     Zr1009   2.388   1_545  S
O1006     Zr1025   2.386       .  S
Zr1007     O1032   2.443       .  S
Zr1007     O1026   2.447       .  S
Zr1007     O1034   2.447       .  S
Zr1007     O1022   2.453       .  S
Zr1007     O1013   2.402       .  S
Zr1007     O1014   2.413       .  S
Zr1007     O1015   2.381   1_565  S
Zr1007     O1016   2.383       .  S
Zr1008     O1027   2.435       .  S
Zr1008     O1020   2.436       .  S
Zr1008     O1021   2.414       .  S
Zr1008     O1014   2.403   1_545  S
Zr1008     O1015   2.397       .  S
Zr1009     O1011   2.435       .  S
Zr1009     O1033   2.438       .  S
Zr1009     O1035   2.410       .  S
Zr1009     O1013   2.386       .  S
Zr1009     O1016   2.390       .  S
Zr1010     O1036   2.434       .  S
Zr1010     O1037   2.434       .  S
Zr1010     O1012   2.436       .  S
Zr1010     O1013   2.387       .  S
Zr1010     O1014   2.385       .  S
O1011      H1048   0.990       .  S
O1012      H1043   0.990       .  S
O1012      H1057   0.990   1_565  S
O1014      H1040   0.964       .  S
O1015     Zr1025   2.383       .  S
O1016     Zr1025   2.380   1_565  S
O1016      H1041   0.967       .  S
C1017      C1202   1.432       .  S
C1018      C1238   1.428       .  S
C1019      C1220   1.433       .  S
O1020      H1056   0.990       .  S
O1021      C1023   1.279   1_545  A
O1022      C1023   1.285       .  A
C1023      C1194   1.430       .  S
O1024     Zr1025   2.440       .  S
O1024      H1053   0.990       .  S
Zr1025     O1028   2.437       .  S
Zr1025     O1029   2.440       .  S
Zr1025     O1030   2.402   1_545  S
O1026      C1031   1.284       .  A
O1027      H1044   0.990       .  S
O1027      H1059   0.990       .  S
O1028      H1045   0.990       .  S
O1029      H1049   0.990   1_545  S
O1029      H1058   0.990       .  S
O1030      C1031   1.276       .  A
C1031      C1214   1.431       .  S
O1032      H1051   0.991       .  S
O1032      H1055   0.990       .  S
O1033      H1047   0.990       .  S
O1033      H1054   0.990       .  S
O1034      C1038   1.285       .  A
O1035      C1038   1.279       .  A
O1036      H1046   0.990       .  S
O1037      H1050   0.990       .  S
C1038      C1243   1.432       .  S
Zr1061     O1062   2.442       .  S
Zr1061     O1063   2.447       .  S
Zr1061     O1064   2.447       .  S
Zr1061     O1067   2.447       .  S
Zr1061     O1069   2.384       .  S
Zr1061     O1070   2.385       .  S
Zr1061     O1071   2.413       .  S
Zr1061     O1488   2.400       .  S
O1062      H1118   0.990       .  S
O1062      H1126   0.991       .  S
O1063      C1083   1.284       .  A
O1064      C1085   1.284       .  A
O1065     Zr1075   2.424       .  S
O1065      C1084   1.281       .  A
O1066     Zr1074   2.427       .  S
O1066      C1085   1.281       .  A
O1067      C1084   1.285       .  A
O1068     Zr1076   2.409       .  S
O1068      C1083   1.277       .  A
O1069     Zr1074   2.402       .  S
O1069     Zr1076   2.384       .  S
O1070     Zr1075   2.393       .  S
O1070     Zr1076   2.380       .  S
O1070      H1105   0.965       .  S
O1071     Zr1074   2.400       .  S
O1071     Zr1507   2.387   1_554  S
O1071      H1108   0.965       .  S
O1072     Zr1477   2.400       .  S
O1072     Zr1491   2.387       .  S
O1072     Zr1091   2.388       .  S
Zr1073     O1098   2.441       .  S
Zr1073     O1508   2.439       .  S
Zr1073     O1516   2.449       .  S
Zr1073     O1088   2.450       .  S
Zr1073     O1079   2.402   1_556  S
Zr1073     O1080   2.408   1_556  S
Zr1073     O1497   2.383       .  S
Zr1073     O1498   2.385       .  S
Zr1074     O1093   2.437   1_554  S
Zr1074     O1086   2.433       .  S
Zr1074     O1087   2.433       .  S
Zr1074     O1080   2.397       .  S
Zr1074     O1497   2.392   1_554  S
Zr1075     O1493   2.436   1_554  S
Zr1075     O1099   2.438       .  S
Zr1075     O1517   2.413   1_554  S
Zr1075     O1488   2.387       .  S
Zr1075     O1079   2.396       .  S
Zr1075     O1498   2.394   1_554  S
Zr1076     O1102   2.436       .  S
Zr1076     O1103   2.437       .  S
Zr1076     O1078   2.438       .  S
Zr1076     O1079   2.391       .  S
Zr1076     O1080   2.384       .  S
O1077     Zr1491   2.436       .  S
O1077      H1114   0.990       .  S
O1078      H1109   0.990       .  S
O1078      H1123   0.990       .  S
O1080      H1106   0.964       .  S
O1081     Zr1489   2.383       .  S
O1081     Zr1490   2.392       .  S
O1081     Zr1091   2.380       .  S
O1082     Zr1489   2.385       .  S
O1082     Zr1491   2.394       .  S
O1082     Zr1091   2.380       .  S
O1082      H1107   0.965       .  S
C1083      C1224   1.435       .  S
C1084      C1199   1.437       .  S
C1085      C1207   1.435       .  S
O1086      H1122   0.990       .  S
O1087      C1089   1.283       .  A
O1088      C1089   1.286   1_556  A
C1089      C1216   1.441       .  S
O1090     Zr1091   2.439       .  S
O1090      H1119   0.990       .  S
Zr1091     O1094   2.439       .  S
Zr1091     O1095   2.438       .  S
Zr1091     O1096   2.408       .  S
Zr1091     O1487   2.387       .  S
O1092     Zr1489   2.439       .  S
O1092      C1097   1.283       .  A
O1093      H1110   0.991   1_556  S
O1093      H1125   0.990       .  S
O1094      H1111   0.990       .  S
O1095      H1115   0.990       .  S
O1095      H1124   0.990       .  S
O1096      C1097   1.278       .  A
C1097      C1248   1.429       .  S
O1098      H1117   0.990       .  S
O1098      H1121   0.990   1_556  S
O1099      H1113   0.990       .  S
O1099      H1120   0.990       .  S
O1100     Zr1489   2.449       .  S
O1100      C1104   1.285       .  A
O1101     Zr1491   2.413       .  S
O1101      C1104   1.278       .  A
O1102      H1112   0.990       .  S
O1103      H1116   0.990       .  S
C1104      C1228   1.435       .  S
Zr1127     O1128   2.443       .  S
Zr1127     O1130   2.461       .  S
Zr1127     O1135   2.383       .  S
Zr1127     O1137   2.416       .  S
O1128      H1184   0.989       .  S
O1128      H1192   0.992       .  S
O1129      C1149   1.286       .  A
O1130      C1151   1.287       .  A
O1131     Zr1141   2.441       .  S
O1131      C1150   1.285       .  A
O1132     Zr1140   2.441       .  S
O1132      C1151   1.284       .  A
O1133      C1150   1.283       .  A
O1134     Zr1142   2.395       .  S
O1134      C1149   1.274       .  A
O1135     Zr1140   2.407       .  S
O1136     Zr1141   2.397       .  S
O1136     Zr1142   2.381       .  S
O1136      H1171   0.965       .  S
O1137     Zr1140   2.404       .  S
O1137     Zr1157   2.384       .  S
O1137      H1174   0.963       .  S
O1138     Zr1141   2.381       .  S
Zr1139     O1164   2.444       .  S
Zr1139     O1158   2.448       .  S
Zr1139     O1166   2.449       .  S
Zr1139     O1154   2.436       .  S
Zr1139     O1145   2.398       .  S
Zr1139     O1146   2.415       .  S
Zr1139     O1148   2.388       .  S
Zr1140     O1159   2.435       .  S
Zr1140     O1152   2.435       .  S
Zr1140     O1153   2.446       .  S
Zr1140     O1147   2.396       .  S
Zr1141     O1143   2.436       .  S
Zr1141     O1165   2.439       .  S
Zr1141     O1167   2.429       .  S
Zr1141     O1145   2.391       .  S
Zr1141     O1148   2.404       .  S
Zr1142     O1168   2.436       .  S
Zr1142     O1169   2.438       .  S
Zr1142     O1144   2.438       .  S
Zr1142     O1145   2.384       .  S
Zr1142     O1146   2.372       .  S
O1143      H1180   0.990       .  S
O1144      H1175   0.991       .  S
O1144      H1189   0.990       .  S
O1146      H1172   0.963       .  S
O1147     Zr1157   2.384       .  S
O1148      H1173   0.965       .  S
C1149      C1229   1.435       .  S
C1150      C1196   1.435       .  S
C1151      C1245   1.443       .  S
O1152      H1188   0.990       .  S
O1153      C1155   1.287       .  A
C1155      C1235   1.433       .  S
O1156     Zr1157   2.440       .  S
O1156      H1185   0.990       .  S
Zr1157     O1160   2.438       .  S
O1158      C1163   1.283       .  A
O1159      H1176   0.990       .  S
O1159      H1191   0.990       .  S
O1160      H1177   0.990       .  S
O1161      H1190   0.990       .  S
O1162      C1163   1.275       .  A
O1164      H1183   0.989       .  S
O1164      H1187   0.992       .  S
O1165      H1179   0.990       .  S
O1165      H1186   0.990       .  S
O1166      C1170   1.284       .  A
O1167      C1170   1.282       .  A
O1168      H1178   0.990       .  S
O1169      H1182   0.990       .  S
C1170      C1221   1.435       .  S
C1193      C1194   1.203       .  T
C1195      C1196   1.206       .  T
C1197      C1198   1.206       .  T
C1199      C1616   1.207       .  T
C1200      C1615   1.207       .  T
C1201      C1202   1.204       .  T
C1203      C1204   1.203       .  T
C1205      C1206   1.205       .  T
C1207      C1208   1.206       .  T
C1209      C1210   1.208       .  T
C1211      C1326   1.431   1_554  S
C1211      C1212   1.200   1_545  T
C1213      C1214   1.204       .  T
C1215      C1216   1.210       .  T
C1217      C1218   1.206       .  T
C1219      C1220   1.205       .  T
C1221      C1222   1.206       .  T
C1223      C1224   1.206       .  T
C1225      C1278   1.448       .  S
C1225      C1226   1.210       .  T
C1227      C1228   1.205       .  T
C1229      C1230   1.206       .  T
C1231      C1648   1.204       .  T
C1232      C1647   1.204       .  T
C1233      C1234   1.211   1_545  T
C1235      C1236   1.206       .  T
C1237      C1238   1.202       .  T
C1239      C1240   1.210       .  T
C1241      C1242   1.204       .  T
C1243      C1244   1.205       .  T
C1245      C1246   1.211       .  T
C1247      C1248   1.202       .  T
C1249      C1250   1.538       .  S
C1249      C1255   1.533       .  S
C1249      C1253   1.531       .  S
C1249      C1660   1.466       .  S
C1250      H1257   1.086       .  S
C1250      C1251   1.367       .  D
C1251      C1252   1.538       .  S
C1251      C1662   1.450       .  S
C1252      C1256   1.535       .  S
C1252      C1254   1.538       .  S
C1252      H1258   1.112       .  S
C1253      H1259   1.087       .  S
C1253      C1254   1.363       .  D
C1254      C1657   1.439       .  S
C1255      H1260   1.087       .  S
C1255      C1256   1.360       .  D
C1256      C1663   1.436       .  S
C1261      C1262   1.539       .  S
C1261      C1267   1.526       .  S
C1261      C1265   1.535   1_655  S
C1261      C1652   1.467       .  S
C1262      H1269   1.086   1_655  S
C1262      C1263   1.367       .  D
C1263      C1264   1.538       .  S
C1263      C1656   1.448       .  S
C1264      C1268   1.536       .  S
C1264      C1266   1.545       .  S
C1264      H1270   1.111       .  S
C1265      C1266   1.366   1_455  D
C1267      H1272   1.087       .  S
C1267      C1268   1.358       .  D
C1268      C1653   1.434       .  S
C1273      C1274   1.535       .  S
C1273      C1279   1.524       .  S
C1273      C1277   1.538   1_556  S
C1273      C1647   1.464   1_556  S
C1274      H1281   1.087       .  S
C1274      C1275   1.361       .  D
C1275      C1276   1.540       .  S
C1275      C1646   1.443       .  S
C1276      C1280   1.543       .  S
C1276      C1278   1.540   1_556  S
C1276      H1282   1.112       .  S
C1277      C1278   1.369       .  D
C1279      H1284   1.087       .  S
C1279      C1280   1.359       .  D
C1280      C1643   1.440       .  S
C1285      C1286   1.537       .  S
C1285      C1291   1.534       .  S
C1285      C1289   1.532       .  S
C1285      C1635   1.467       .  S
C1286      H1293   1.087       .  S
C1286      C1287   1.363       .  D
C1287      C1288   1.535       .  S
C1287      C1639   1.441       .  S
C1288      C1292   1.536       .  S
C1288      C1290   1.537       .  S
C1288      H1294   1.112       .  S
C1289      H1295   1.087       .  S
C1289      C1290   1.363       .  D
C1290      C1658   1.439       .  S
C1291      H1296   1.087       .  S
C1291      C1292   1.364       .  D
C1292      C1638   1.442       .  S
C1297      C1298   1.534       .  S
C1297      C1303   1.542       .  S
C1297      C1301   1.538       .  S
C1297      C1631   1.475       .  S
C1298      H1305   1.087       .  S
C1298      C1299   1.359       .  D
C1299      C1300   1.533       .  S
C1299      C1629   1.438       .  S
C1300      C1304   1.527       .  S
C1300      C1302   1.525       .  S
C1300      H1306   1.112       .  S
C1301      H1307   1.086       .  S
C1301      C1302   1.366       .  D
C1302      C1628   1.431       .  S
C1303      H1308   1.086       .  S
C1303      C1304   1.371       .  D
C1304      C1634   1.443       .  S
C1309      C1310   1.529       .  S
C1309      C1315   1.537       .  S
C1309      C1313   1.540       .  S
C1309      C1625   1.473       .  S
C1310      H1317   1.087       .  S
C1310      C1311   1.362       .  D
C1311      C1312   1.539       .  S
C1311      C1624   1.442       .  S
C1312      C1316   1.536       .  S
C1312      C1314   1.537       .  S
C1312      H1318   1.112       .  S
C1313      C1314   1.369       .  D
C1315      H1320   1.087       .  S
C1315      C1316   1.363       .  D
C1316      C1622   1.440   1_655  S
C1321      C1322   1.538   1_556  S
C1321      C1327   1.535       .  S
C1321      C1616   1.470   1_556  S
C1322      H1329   1.086       .  S
C1322      C1323   1.366   1_554  D
C1323      C1324   1.527       .  S
C1323      C1619   1.438       .  S
C1324      C1328   1.532       .  S
C1324      C1326   1.525       .  S
C1324      H1330   1.112       .  S
C1325      H1331   1.086       .  S
C1327      H1332   1.087       .  S
C1327      C1328   1.361       .  D
C1328      C1617   1.438       .  S
C1333      C1334   1.529       .  S
C1333      C1339   1.534       .  S
C1333      C1337   1.535       .  S
C1333      C1611   1.467       .  S
C1334      H1341   1.087       .  S
C1334      C1335   1.360       .  D
C1335      C1336   1.536       .  S
C1335      C1609   1.437       .  S
C1336      C1340   1.538       .  S
C1336      C1338   1.544       .  S
C1336      H1342   1.112       .  S
C1337      H1343   1.086       .  S
C1337      C1338   1.367       .  D
C1338      C1650   1.451       .  S
C1339      H1344   1.087       .  S
C1339      C1340   1.363       .  D
C1340      C1614   1.441       .  S
Zr1345     O1346   2.440       .  S
Zr1345     O1351   2.456       .  S
O1346      H1402   0.990       .  S
O1346      H1410   0.991       .  S
O1347      C1367   1.288       .  A
O1348      C1369   1.290       .  A
O1349     Zr1359   2.419       .  S
O1350     Zr1358   2.409       .  S
O1350      C1369   1.278   1_565  A
O1351      C1368   1.287   1_655  A
O1352      C1367   1.273   1_455  A
O1353     Zr1358   2.398   1_545  S
O1354     Zr1359   2.399       .  S
O1354      H1389   0.965       .  S
O1355     Zr1358   2.402       .  S
O1355      H1392   0.963       .  S
O1356     Zr1359   2.382   1_565  S
O1356     Zr1375   2.392       .  S
Zr1357     O1382   2.440       .  S
Zr1357     O1376   2.456       .  S
Zr1357     O1384   2.465       .  S
Zr1357     O1372   2.459       .  S
Zr1357     O1363   2.390   1_565  S
Zr1357     O1364   2.414   1_565  S
Zr1357     O1365   2.378       .  S
Zr1358     O1377   2.439       .  S
Zr1358     O1370   2.435   1_565  S
Zr1359     O1361   2.436   1_545  S
Zr1359     O1383   2.439       .  S
Zr1359     O1385   2.410       .  S
Zr1359     O1366   2.397   1_545  S
Zr1360     O1386   2.437       .  S
Zr1360     O1387   2.436       .  S
Zr1360     O1362   2.437       .  S
Zr1360     O1363   2.366       .  S
Zr1360     O1364   2.387       .  S
O1361      H1398   0.990       .  S
O1362      H1393   0.990       .  S
O1364      H1390   0.965       .  S
O1366     Zr1375   2.383       .  S
O1366      H1391   0.967       .  S
C1367      C1626   1.437       .  S
C1368      C1655   1.441   1_455  S
C1369      C1633   1.432   1_545  S
O1370      H1406   0.990       .  S
O1371      C1373   1.280       .  A
O1372      C1373   1.286       .  A
C1373      C1613   1.435       .  S
O1374      H1403   0.990       .  S
Zr1375     O1379   2.441       .  S
Zr1375     O1380   2.391       .  S
O1376      C1381   1.285       .  A
O1377      H1394   0.990       .  S
O1377      H1409   0.991       .  S
O1379      H1399   0.990       .  S
O1379      H1408   0.989       .  S
C1381      C1648   1.430       .  S
O1382      H1401   0.991       .  S
O1382      H1405   0.989       .  S
O1383      H1397   0.990       .  S
O1383      H1404   0.991       .  S
O1385      C1388   1.279       .  A
O1386      H1396   0.990       .  S
O1387      H1400   0.990       .  S
C1388      C1620   1.429       .  S
Zr1411     O1412   2.440       .  S
Zr1411     O1413   2.439       .  S
Zr1411     O1414   2.451       .  S
Zr1411     O1417   2.444       .  S
Zr1411     O1419   2.380       .  S
Zr1411     O1420   2.385   1_545  S
Zr1411     O1421   2.408       .  S
Zr1411     O1422   2.399       .  S
O1412      H1468   0.990       .  S
O1412      H1476   0.990       .  S
O1413      C1433   1.282       .  A
O1414      C1435   1.285       .  A
O1415     Zr1425   2.407       .  S
O1415      C1434   1.278   1_565  A
O1416     Zr1424   2.420       .  S
O1416      C1435   1.280       .  A
O1417      C1434   1.285       .  A
O1418     Zr1426   2.408   1_545  S
O1418      C1433   1.277       .  A
O1419     Zr1424   2.395       .  S
O1419     Zr1426   2.382   1_545  S
O1420     Zr1425   2.396       .  S
O1420     Zr1426   2.376       .  S
O1420      H1455   0.966       .  S
O1421     Zr1424   2.397       .  S
O1421     Zr1441   2.384       .  S
O1421      H1458   0.965       .  S
O1422     Zr1425   2.388   1_545  S
O1422     Zr1441   2.386       .  S
Zr1423     O1448   2.443       .  S
Zr1423     O1442   2.447       .  S
Zr1423     O1450   2.447       .  S
Zr1423     O1438   2.453       .  S
Zr1423     O1429   2.402       .  S
Zr1423     O1430   2.413       .  S
Zr1423     O1431   2.381   1_565  S
Zr1423     O1432   2.383       .  S
Zr1424     O1443   2.435       .  S
Zr1424     O1436   2.436       .  S
Zr1424     O1437   2.414       .  S
Zr1424     O1430   2.403   1_545  S
Zr1424     O1431   2.397       .  S
Zr1425     O1427   2.435       .  S
Zr1425     O1449   2.438       .  S
Zr1425     O1451   2.410       .  S
Zr1425     O1429   2.386       .  S
Zr1425     O1432   2.390       .  S
Zr1426     O1452   2.434       .  S
Zr1426     O1453   2.434       .  S
Zr1426     O1428   2.436       .  S
Zr1426     O1429   2.387       .  S
Zr1426     O1430   2.385       .  S
O1427      H1464   0.990       .  S
O1428      H1459   0.990       .  S
O1428      H1473   0.990   1_565  S
O1430      H1456   0.964       .  S
O1431     Zr1441   2.383       .  S
O1432     Zr1441   2.380   1_565  S
O1432      H1457   0.967       .  S
C1433      C1618   1.432       .  S
C1434      C1654   1.428       .  S
C1435      C1636   1.433       .  S
O1436      H1472   0.990       .  S
O1437      C1439   1.279   1_545  A
O1438      C1439   1.285       .  A
C1439      C1610   1.430       .  S
O1440     Zr1441   2.440       .  S
O1440      H1469   0.990       .  S
Zr1441     O1444   2.437       .  S
Zr1441     O1445   2.440       .  S
Zr1441     O1446   2.402   1_545  S
O1442      C1447   1.284       .  A
O1443      H1460   0.990       .  S
O1443      H1475   0.990       .  S
O1444      H1461   0.990       .  S
O1445      H1465   0.990   1_545  S
O1445      H1474   0.990       .  S
O1446      C1447   1.276       .  A
C1447      C1630   1.431       .  S
O1448      H1467   0.991       .  S
O1448      H1471   0.990       .  S
O1449      H1463   0.990       .  S
O1449      H1470   0.990       .  S
O1450      C1454   1.285       .  A
O1451      C1454   1.279       .  A
O1452      H1462   0.990       .  S
O1453      H1466   0.990       .  S
C1454      C1659   1.432       .  S
Zr1477     O1478   2.442       .  S
Zr1477     O1479   2.447       .  S
Zr1477     O1480   2.447       .  S
Zr1477     O1483   2.447       .  S
Zr1477     O1485   2.384       .  S
Zr1477     O1486   2.385       .  S
Zr1477     O1487   2.413       .  S
O1478      H1534   0.990       .  S
O1478      H1542   0.991       .  S
O1479      C1499   1.284       .  A
O1480      C1501   1.284       .  A
O1481     Zr1491   2.424       .  S
O1481      C1500   1.281       .  A
O1482     Zr1490   2.427       .  S
O1482      C1501   1.281       .  A
O1483      C1500   1.285       .  A
O1484     Zr1492   2.409       .  S
O1484      C1499   1.277       .  A
O1485     Zr1490   2.402       .  S
O1485     Zr1492   2.384       .  S
O1486     Zr1491   2.393       .  S
O1486     Zr1492   2.380       .  S
O1486      H1521   0.965       .  S
O1487     Zr1490   2.400       .  S
O1487      H1524   0.965       .  S
O1488     Zr1507   2.388   1_554  S
Zr1489     O1514   2.441       .  S
Zr1489     O1504   2.450       .  S
Zr1489     O1495   2.402       .  S
Zr1489     O1496   2.408       .  S
Zr1490     O1509   2.437       .  S
Zr1490     O1502   2.433       .  S
Zr1490     O1503   2.433       .  S
Zr1490     O1496   2.397       .  S
Zr1491     O1515   2.438       .  S
Zr1491     O1495   2.396       .  S
Zr1492     O1518   2.436       .  S
Zr1492     O1519   2.437       .  S
Zr1492     O1494   2.438       .  S
Zr1492     O1495   2.391       .  S
Zr1492     O1496   2.384       .  S
O1493      H1530   0.990       .  S
O1494      H1525   0.990       .  S
O1494      H1539   0.990       .  S
O1496      H1522   0.964       .  S
O1497     Zr1507   2.380       .  S
O1498     Zr1507   2.380       .  S
O1498      H1523   0.965       .  S
C1499      C1640   1.435       .  S
C1500      C1615   1.437       .  S
C1501      C1623   1.435       .  S
O1502      H1538   0.990       .  S
O1503      C1505   1.283       .  A
O1504      C1505   1.286       .  A
C1505      C1632   1.441       .  S
O1506     Zr1507   2.439       .  S
O1506      H1535   0.990       .  S
Zr1507     O1510   2.439       .  S
Zr1507     O1511   2.438       .  S
Zr1507     O1512   2.408       .  S
O1508      C1513   1.283       .  A
O1509      H1526   0.991       .  S
O1509      H1541   0.990       .  S
O1510      H1527   0.990       .  S
O1511      H1531   0.990       .  S
O1511      H1540   0.990       .  S
O1512      C1513   1.278       .  A
C1513      C1664   1.429       .  S
O1514      H1533   0.990       .  S
O1514      H1537   0.990       .  S
O1515      H1529   0.990       .  S
O1515      H1536   0.990       .  S
O1516      C1520   1.285       .  A
O1517      C1520   1.278       .  A
O1518      H1528   0.990       .  S
O1519      H1532   0.990       .  S
C1520      C1644   1.435       .  S
Zr1543     O1544   2.443       .  S
Zr1543     O1546   2.461       .  S
Zr1543     O1551   2.383       .  S
Zr1543     O1553   2.416       .  S
O1544      H1600   0.989       .  S
O1544      H1608   0.992       .  S
O1545      C1565   1.286       .  A
O1546      C1567   1.287       .  A
O1547     Zr1557   2.441       .  S
O1547      C1566   1.285       .  A
O1548     Zr1556   2.441       .  S
O1548      C1567   1.284       .  A
O1549      C1566   1.283       .  A
O1550     Zr1558   2.395       .  S
O1550      C1565   1.274       .  A
O1551     Zr1556   2.407       .  S
O1552     Zr1557   2.397       .  S
O1552     Zr1558   2.381       .  S
O1552      H1587   0.965       .  S
O1553     Zr1556   2.404       .  S
O1553     Zr1573   2.384       .  S
O1553      H1590   0.963       .  S
O1554     Zr1557   2.381       .  S
Zr1555     O1580   2.444       .  S
Zr1555     O1574   2.448       .  S
Zr1555     O1582   2.449       .  S
Zr1555     O1570   2.436       .  S
Zr1555     O1561   2.398       .  S
Zr1555     O1562   2.415       .  S
Zr1555     O1564   2.388       .  S
Zr1556     O1575   2.435       .  S
Zr1556     O1568   2.435       .  S
Zr1556     O1569   2.446       .  S
Zr1556     O1563   2.396       .  S
Zr1557     O1559   2.436       .  S
Zr1557     O1581   2.439       .  S
Zr1557     O1583   2.429       .  S
Zr1557     O1561   2.391       .  S
Zr1557     O1564   2.404       .  S
Zr1558     O1584   2.436       .  S
Zr1558     O1585   2.438       .  S
Zr1558     O1560   2.438       .  S
Zr1558     O1561   2.384       .  S
Zr1558     O1562   2.372       .  S
O1559      H1596   0.990       .  S
O1560      H1591   0.991       .  S
O1560      H1605   0.990       .  S
O1562      H1588   0.963       .  S
O1563     Zr1573   2.384       .  S
O1564      H1589   0.965       .  S
C1565      C1645   1.435       .  S
C1566      C1612   1.435       .  S
C1567      C1661   1.443       .  S
O1568      H1604   0.990       .  S
O1569      C1571   1.287       .  A
C1571      C1651   1.433       .  S
O1572     Zr1573   2.440       .  S
O1572      H1601   0.990       .  S
Zr1573     O1576   2.438       .  S
O1574      C1579   1.283       .  A
O1575      H1592   0.990       .  S
O1575      H1607   0.990       .  S
O1576      H1593   0.990       .  S
O1577      H1606   0.990       .  S
O1578      C1579   1.275       .  A
O1580      H1599   0.989       .  S
O1580      H1603   0.992       .  S
O1581      H1595   0.990       .  S
O1581      H1602   0.990       .  S
O1582      C1586   1.284       .  A
O1583      C1586   1.282       .  A
O1584      H1594   0.990       .  S
O1585      H1598   0.990       .  S
C1586      C1637   1.435       .  S
C1609      C1610   1.203       .  T
C1611      C1612   1.206       .  T
C1613      C1614   1.206       .  T
C1617      C1618   1.204       .  T
C1619      C1620   1.203       .  T
C1621      C1622   1.205       .  T
C1623      C1624   1.206       .  T
C1625      C1626   1.208       .  T
C1627      C1628   1.200   1_545  T
C1629      C1630   1.204       .  T
C1631      C1632   1.210       .  T
C1633      C1634   1.206       .  T
C1635      C1636   1.205       .  T
C1637      C1638   1.206       .  T
C1639      C1640   1.206       .  T
C1641      C1642   1.210       .  T
C1643      C1644   1.205       .  T
C1645      C1646   1.206       .  T
C1649      C1650   1.211   1_545  T
C1651      C1652   1.206       .  T
C1653      C1654   1.202       .  T
C1655      C1656   1.210       .  T
C1657      C1658   1.204       .  T
C1659      C1660   1.205       .  T
C1661      C1662   1.211       .  T
C1663      C1664   1.202       .  T
