geometry optimzed in LAMMPS
_audit_creation_date              2020-11-30 
_audit_creation_method            'lammps2cif' 
_symmetry_space_group_name_H-M    'P1' 
_symmetry_Int_Tables_number       1 
_symmetry_cell_setting            triclinic 
loop_ 
_symmetry_equiv_pos_as_xyz 
  x,y,z 
_cell_length_a                    43.86484094 
_cell_length_b                    43.71904475087488 
_cell_length_c                    43.8667907533568 
_cell_angle_alpha                 90.11751553713161 
_cell_angle_beta                  89.90790504855855 
_cell_angle_gamma                 90.1318452642789 
loop_ 
_atom_site_label 
_atom_site_type_symbol 
_atom_site_fract_x 
_atom_site_fract_y 
_atom_site_fract_z 
_atom_site_charge 
O1          O  0.99978152  0.05012043  0.08666795    -0.80500
O2          O  0.99879994  0.05148677  0.41573845    -0.82100
O3          O  0.05125583  0.08634346  0.99996440    -0.79100
O4          O  0.45158853  0.08833045  0.00159060    -0.77500
O5          O  0.41425690  0.05184846  0.00035969    -0.79300
O6          O  0.08787095  0.04923775  0.00120327    -0.80200
O7          O  0.99900090  0.08861141  0.45236277    -0.81500
O8          O  0.00233882  0.08705594  0.04987808    -0.81800
Eu9        Eu  0.00056559  0.06185056  0.00015102     2.39200
O10         O  0.47013678  0.03140906  0.46932913    -0.89300
O11         O  0.03079207  0.03083413  0.03124442    -0.92900
C12         C  0.00152856  0.07814110  0.07784996     1.01800
C13         C  0.99842949  0.07976735  0.42436987     1.01600
C14         C  0.07931642  0.07741565  0.00086336     1.01500
C15         C  0.42339493  0.07994905  0.00111411     0.99400
H16         H  0.04407878  0.04427209  0.45691488     0.29100
O17         O  0.03142109  0.03134687  0.46953828    -1.01700
H18         H  0.45625623  0.04429934  0.04415034     0.29200
O19         O  0.46877396  0.03141549  0.03136807    -1.04200
O20         O  0.99919846  0.44941305  0.41334179    -0.81500
O21         O  0.99965841  0.45123944  0.08887708    -0.81000
O22         O  0.08666143  0.00105324  0.44953481    -0.79400
O23         O  0.41399534  0.00206612  0.44869891    -0.82800
O24         O  0.41221016  0.99986893  0.04952779    -0.80600
O25         O  0.08582353  0.00068551  0.05093444    -0.79300
O26         O  0.04875260  0.41380641  0.00247943    -0.80800
O27         O  0.44900350  0.41390302  0.00078552    -0.82700
O28         O  0.08627503  0.44987042  0.00085017    -0.79500
O29         O  0.41251470  0.45111424  0.99920450    -0.82200
O30         O  0.04976184  0.00140490  0.41277376    -0.77900
O31         O  0.04856717  0.00133580  0.08744444    -0.77900
O32         O  0.44860801  0.00030248  0.08692683    -0.77600
O33         O  0.45131751  0.00153191  0.41227025    -0.81100
O34         O  0.00029998  0.41275311  0.45035800    -0.80500
O35         O  0.99831462  0.41418745  0.05199287    -0.78800
Eu36       Eu  0.00027842  0.00020227  0.43861588     2.39800
Eu37       Eu  0.99901957  0.00027034  0.06183765     2.39600
Eu38       Eu  0.06168054  0.99979195  0.00031866     2.38400
Eu39       Eu  0.43777069  0.00093186  0.99970978     2.39900
Eu40       Eu  0.99884618  0.43883920  0.00162384     2.39800
O41         O  0.46808889  0.47014138  0.03119036    -0.93200
O42         O  0.03005720  0.46895631  0.46941094    -0.92100
C43         C  0.99966015  0.42122384  0.42219507     1.01900
C44         C  0.99916185  0.42301430  0.08009772     1.00700
C45         C  0.07783754  0.00166764  0.42143528     1.00000
C46         C  0.42307326  0.00200239  0.42063564     1.02100
C47         C  0.42066758  0.99986182  0.07770199     1.01000
C48         C  0.07672759  0.00139025  0.07896426     0.99800
C49         C  0.07703877  0.42182800  0.00190268     0.99900
C50         C  0.42102867  0.42290572  0.99973250     0.99300
H51         H  0.04276306  0.45712504  0.04498698     0.29900
O52         O  0.03016493  0.46977908  0.03215662    -1.05400
H53         H  0.45567995  0.45651409  0.45665879     0.31900
O54         O  0.46841323  0.46912266  0.46952727    -1.08000
O55         O  0.00039459  0.19826872  0.16271993    -0.80500
O56         O  0.99813611  0.19737073  0.33477650    -0.82100
O57         O  0.04926128  0.16163398  0.24688328    -0.79100
O58         O  0.44845914  0.16260080  0.24951026    -0.77500
O59         O  0.41182743  0.19977686  0.24841687    -0.79300
O60         O  0.08586692  0.19896467  0.24834839    -0.80200
O61         O  0.99825229  0.16000955  0.29837918    -0.81500
O62         O  0.99875329  0.16136845  0.19960963    -0.81800
Eu63       Eu  0.99902500  0.18651785  0.24936245     2.39200
O64         O  0.46788126  0.21828033  0.28042375    -0.89300
O65         O  0.03013118  0.21747897  0.21863531    -0.92900
C66         C  0.99957161  0.17018140  0.17161575     1.01800
C67         C  0.99784693  0.16901065  0.32636033     1.01600
C68         C  0.07727224  0.17080832  0.24694173     1.01500
C69         C  0.42047871  0.17164242  0.24860413     0.99400
H70         H  0.04285025  0.20450265  0.29352853     0.29100
O71         O  0.03010926  0.21721728  0.28087333    -1.01700
H72         H  0.45545246  0.20537676  0.20556147     0.29200
O73         O  0.46807568  0.21812721  0.21839809    -1.04200
O74         O  0.99900574  0.29920887  0.33638955    -0.81500
O75         O  0.99848600  0.29863729  0.16234612    -0.81000
O76         O  0.08552303  0.24976239  0.30022268    -0.79400
O77         O  0.41227372  0.24815049  0.29958651    -0.82800
O78         O  0.41307108  0.24957622  0.19875273    -0.80600
O79         O  0.08592657  0.24834031  0.19955818    -0.79300
O80         O  0.04967212  0.33554332  0.24877818    -0.80800
O81         O  0.44912793  0.33570391  0.24905414    -0.82700
O82         O  0.08629397  0.29850666  0.24930923    -0.79500
O83         O  0.41183781  0.29932885  0.24966383    -0.82200
O84         O  0.04865175  0.25100163  0.33722244    -0.77900
O85         O  0.04931682  0.24825072  0.16267443    -0.77900
O86         O  0.45013770  0.24835671  0.16208729    -0.77600
O87         O  0.44879143  0.24748065  0.33679148    -0.81100
O88         O  0.99998872  0.33578510  0.29927109    -0.80500
O89         O  0.99943236  0.33565923  0.19925139    -0.78800
Eu90       Eu  0.99880563  0.24856363  0.31146501     2.39800
Eu91       Eu  0.99945106  0.24844601  0.18766087     2.39600
Eu92       Eu  0.06079328  0.24861142  0.24976084     2.38400
Eu93       Eu  0.43733063  0.24945138  0.24936402     2.39900
Eu94       Eu  0.99937383  0.31044667  0.24924943     2.39800
O95         O  0.46824215  0.28048006  0.21840560    -0.93200
O96         O  0.02977742  0.27951396  0.28048484    -0.92100
C97         C  0.99982730  0.32739057  0.32746467     1.01900
C98         C  0.99872175  0.32684832  0.17114779     1.00700
C99         C  0.07675659  0.25099494  0.32834890     1.00000
C100        C  0.42079610  0.24729519  0.32775110     1.02100
C101        C  0.42205777  0.24875211  0.17068459     1.01000
C102        C  0.07735797  0.24851140  0.17138342     0.99800
C103        C  0.07776854  0.32671441  0.24900572     0.99900
C104        C  0.42088596  0.32745350  0.24944013     1.02500
H105        H  0.04317803  0.29228031  0.20566995     0.29900
O106        O  0.03043407  0.27956579  0.21840285    -1.05400
H107        H  0.45537694  0.29309718  0.29345413     0.31900
O108        O  0.46809999  0.28034488  0.28073939    -1.08000
O109        O  0.33641665  0.50101829  0.20036219    -0.80500
O110        O  0.16284385  0.50145677  0.19920985    -0.82100
O111        O  0.25010371  0.45032948  0.16360597    -0.79100
O112        O  0.24850802  0.05081625  0.16322387    -0.77500
O113        O  0.25006551  0.08783504  0.20015774    -0.79300
O114        O  0.24903693  0.41332889  0.20032858    -0.80200
O115        O  0.20001087  0.50001036  0.16258487    -0.81500
O116        O  0.29965467  0.50081320  0.16337082    -0.81800
Eu117      Eu  0.24951077  0.50073145  0.18854215     2.39200
O118        O  0.21838697  0.03200995  0.21889983    -0.89300
O119        O  0.27982605  0.46940439  0.21967438    -0.92900
C120        C  0.32772974  0.50122453  0.17219980     1.01800
C121        C  0.17186601  0.50059203  0.17115905     1.01600
C122        C  0.24954865  0.42211810  0.17227960     1.01500
C123        C  0.24916519  0.07897548  0.17209018     0.99400
H124        H  0.20530438  0.45702906  0.20616611     0.29100
O125        O  0.21794650  0.46971031  0.21905540    -1.01700
H126        H  0.29323842  0.04391294  0.20578712     0.29200
O127        O  0.28053647  0.03127001  0.21861093    -1.04200
O128        O  0.16244821  0.49987434  0.30049795    -0.81500
O129        O  0.33532665  0.50123661  0.30159163    -0.81000
O130        O  0.19759264  0.41421047  0.24949244    -0.79400
O131        O  0.20065044  0.08850575  0.24946664    -0.82800
O132        O  0.29948441  0.08774315  0.24929044    -0.80600
O133        O  0.29804828  0.41301298  0.25035403    -0.79300
O134        O  0.24724671  0.44960183  0.33673552    -0.80800
O135        O  0.24952773  0.04942590  0.33709397    -0.82700
O136        O  0.24606128  0.41254785  0.29995432    -0.79500
O137        O  0.25030985  0.08673622  0.30062764    -0.82200
O138        O  0.16082211  0.45116449  0.24906522    -0.77900
O139        O  0.33548914  0.44933039  0.24990971    -0.77900
O140        O  0.33583427  0.05025534  0.24946945    -0.77600
O141        O  0.16333296  0.05187510  0.24877895    -0.81100
O142        O  0.19924450  0.49986478  0.33726969    -0.80500
O143        O  0.29812677  0.50170061  0.33820540    -0.78800
Eu144      Eu  0.18696688  0.50092406  0.24990841     2.39800
Eu145      Eu  0.31114983  0.50006564  0.25073706     2.39600
Eu146      Eu  0.24826306  0.43848752  0.25029827     2.38400
Eu147      Eu  0.24991084  0.06235169  0.24998818     2.39900
Eu148      Eu  0.24879229  0.50003362  0.31197257     2.39800
O149        O  0.28091136  0.03113585  0.28055198    -0.93200
O150        O  0.21734745  0.46958201  0.28099924    -0.92100
C151        C  0.17120463  0.49951602  0.32863201     1.01900
C152        C  0.32627985  0.50205019  0.32967140     1.00700
C153        C  0.16948444  0.42296285  0.24887840     1.00000
C154        C  0.17251419  0.07994171  0.24888226     1.02100
C155        C  0.32735182  0.07850529  0.24943117     1.01000
C156        C  0.32631697  0.42118981  0.24987476     0.99800
C157        C  0.24632635  0.42137357  0.32805966     0.99900
C158        C  0.24972083  0.07758242  0.32861464     1.02500
H159        H  0.29238236  0.45593963  0.29434940     0.29900
O160        O  0.27994377  0.46878074  0.28151484    -1.05400
H161        H  0.20627480  0.04449683  0.29387562     0.31900
O162        O  0.21878250  0.03167989  0.28110239    -1.08000
O163        O  0.19935134  0.16297251  0.49972184    -0.80500
O164        O  0.20029602  0.33809856  0.50055308    -0.82100
O165        O  0.16446607  0.24987778  0.05148753    -0.79100
O166        O  0.16194905  0.25050364  0.44945675    -0.77500
O167        O  0.19886848  0.24753617  0.41269911    -0.79300
O168        O  0.20150473  0.25044044  0.08796770    -0.80200
O169        O  0.16312584  0.30119738  0.49945141    -0.81500
O170        O  0.16242032  0.19991417  0.49826967    -0.81800
Eu171      Eu  0.18744906  0.25013082  0.49959047     2.39200
O172        O  0.21844440  0.28078812  0.46850809    -0.89300
O173        O  0.21932495  0.21936651  0.03169264    -0.92900
C174        C  0.17130390  0.17180018  0.49870828     1.01800
C175        C  0.17215742  0.32938560  0.50023746     1.01600
C176        C  0.17336236  0.24995209  0.07957301     1.01500
C177        C  0.17076628  0.24886520  0.42136355     0.99400
H178        H  0.20707164  0.29438752  0.04436998     0.29100
O179        O  0.21959552  0.28160055  0.03148843    -1.01700
H180        H  0.20552034  0.20534233  0.45624470     0.29200
O181        O  0.21811991  0.21820472  0.46899521    -1.04200
O182        O  0.30008029  0.33673851  0.49896860    -0.81500
O183        O  0.29971603  0.16262385  0.49921715    -0.81000
O184        O  0.25148917  0.30148031  0.08623689    -0.79400
O185        O  0.24651123  0.29792685  0.41142754    -0.82800
O186        O  0.25086800  0.19879081  0.41316626    -0.80600
O187        O  0.25253868  0.20098455  0.08782405    -0.79300
O188        O  0.33741189  0.25092674  0.04964764    -0.80800
O189        O  0.33561967  0.24863789  0.44830624    -0.82700
O190        O  0.30063275  0.25206919  0.08661721    -0.79500
O191        O  0.29827236  0.24940597  0.41199487    -0.82200
O192        O  0.25143230  0.33823133  0.04930904    -0.77900
O193        O  0.25049738  0.16370535  0.05115158    -0.77900
O194        O  0.25052737  0.16198001  0.45012220    -0.77600
O195        O  0.24762171  0.33512215  0.44812903    -0.81100
O196        O  0.33675359  0.29959856  0.49990293    -0.80500
O197        O  0.33693370  0.19929840  0.49912489    -0.78800
Eu198      Eu  0.24974538  0.31180590  0.49925523     2.39800
Eu199      Eu  0.24960415  0.18765036  0.49991003     2.39600
Eu200      Eu  0.25086837  0.25071071  0.06191293     2.38400
Eu201      Eu  0.24891898  0.24895268  0.43791630     2.39900
Eu202      Eu  0.31163840  0.24944071  0.49916281     2.39800
O203        O  0.28039153  0.21827116  0.46852195    -0.93200
O204        O  0.28173694  0.28132115  0.03065120    -0.92100
C205        C  0.32812656  0.32779550  0.49975229     1.01900
C206        C  0.32790696  0.17115108  0.49891432     1.00700
C207        C  0.25173704  0.32964439  0.07736004     1.00000
C208        C  0.24629933  0.32610412  0.42005853     1.02100
C209        C  0.25127510  0.17071795  0.42204682     1.01000
C210        C  0.25187601  0.17275427  0.07919563     0.99800
C211        C  0.32863838  0.25186549  0.07776608     0.99900
C212        C  0.32642611  0.24902256  0.42032077     1.02500
H213        H  0.29436869  0.20672227  0.04367068     0.29900
O214        O  0.28155694  0.21934356  0.03100051    -1.05400
H215        H  0.29298483  0.29309694  0.45524273     0.31900
O216        O  0.28045375  0.28040574  0.46821097    -1.08000
C217        C  0.25196358  0.14892020  0.10315193    -0.00500
C218        C  0.23223292  0.12378864  0.09991852    -0.12400
C219        C  0.23065838  0.10099740  0.12223577     0.01700
C220        C  0.24939975  0.10289946  0.14831341    -0.00600
C221        C  0.26914716  0.12799328  0.15160878    -0.12400
C222        C  0.27068881  0.15086157  0.12932598     0.01600
H223        H  0.21744957  0.12229378  0.08016197     0.14600
H224        H  0.28387021  0.12944077  0.17141812     0.14600
C225        C  0.29262339  0.17521144  0.13342825     0.36200
C226        C  0.20858349  0.07671707  0.11849473     0.36100
N227        N  0.31042646  0.19444442  0.13707548    -0.44100
N228        N  0.19078792  0.05735755  0.11556720    -0.44100
C229        C  0.25162798  0.35372038  0.10119943    -0.00500
C230        C  0.23736066  0.34731856  0.12913550    -0.12400
C231        C  0.23602288  0.36917690  0.15239143     0.01700
C232        C  0.24970033  0.39821982  0.14818959    -0.00600
C233        C  0.26379934  0.40472579  0.12013310    -0.12400
C234        C  0.26480133  0.38296353  0.09670318     0.01600
H235        H  0.22655824  0.32525220  0.13265749     0.14600
H236        H  0.27443748  0.42685753  0.11654443     0.14600
C237        C  0.28019051  0.39120276  0.06872449     0.36200
C238        C  0.21918751  0.36140123  0.17963356     0.36100
N239        N  0.29242347  0.39796537  0.04632096    -0.44100
N240        N  0.20552819  0.35493598  0.20128374    -0.44100
C241        C  0.24581556  0.39733131  0.35200144    -0.00500
C242        C  0.23007906  0.36977436  0.34649536    -0.12400
C243        C  0.22955429  0.34626391  0.36825038     0.01700
C244        C  0.24524971  0.35006706  0.39619487    -0.00600
C245        C  0.26075515  0.37761385  0.40168007    -0.12400
C246        C  0.26122230  0.40105067  0.38008058     0.01600
H247        H  0.21786068  0.36669046  0.32522088     0.14600
H248        H  0.27316999  0.38070212  0.42284493     0.14600
C249        C  0.27888370  0.42806118  0.38710284     0.36200
C250        C  0.21190660  0.31907490  0.36163225     0.36100
N251        N  0.29310823  0.44958630  0.39301446    -0.44100
N252        N  0.19770184  0.29738217  0.35624361    -0.44100
C253        C  0.24968934  0.10108939  0.35279590    -0.00500
C254        C  0.26712861  0.12763207  0.34843756    -0.12400
C255        C  0.26867967  0.15022179  0.37095342     0.01700
C256        C  0.25191753  0.14676864  0.39827842    -0.00600
C257        C  0.23468898  0.12008714  0.40277448    -0.12400
C258        C  0.23343897  0.09729149  0.38042664     0.01600
H259        H  0.28027034  0.13039039  0.32764193     0.14600
H260        H  0.22164736  0.11728012  0.42362508     0.14600
C261        C  0.21449802  0.07084823  0.38624207     0.36200
C262        C  0.28897504  0.17576754  0.36594767     0.36100
N263        N  0.19929481  0.04977670  0.39125571    -0.44100
N264        N  0.30557143  0.19591239  0.36164879    -0.44100
C265        C  0.39654808  0.14795492  0.24802070    -0.00500
C266        C  0.40012208  0.12207438  0.26644885    -0.12400
C267        C  0.37787062  0.09922255  0.26726716     0.01700
C268        C  0.35135533  0.10210673  0.24934715    -0.00600
C269        C  0.34773023  0.12798622  0.23082734    -0.12400
C270        C  0.37014600  0.15075813  0.22982835     0.01600
H271        H  0.42007662  0.12004835  0.28081352     0.14600
H272        H  0.32760125  0.13012385  0.21665153     0.14600
C273        C  0.36602059  0.17602149  0.20906321     0.36200
C274        C  0.38228394  0.07373501  0.28765271     0.36100
N275        N  0.36268363  0.19617064  0.19234076    -0.44100
N276        N  0.38585332  0.05332603  0.30399666    -0.44100
C277        C  0.39709812  0.35185298  0.24962382    -0.00500
C278        C  0.36673175  0.34377415  0.24311764    -0.12400
C279        C  0.34340996  0.36561145  0.24284530     0.01700
C280        C  0.35005214  0.39669844  0.24952791    -0.00600
C281        C  0.38042248  0.40474308  0.25604605    -0.12400
C282        C  0.40376830  0.38295922  0.25607786     0.01600
H283        H  0.36105888  0.32020902  0.23775811     0.14600
H284        H  0.38613696  0.42830028  0.26137688     0.14600
C285        C  0.43418710  0.39355141  0.26315933     0.36200
C286        C  0.31317447  0.35515715  0.23483921     0.36100
N287        N  0.45858831  0.40203315  0.26865676    -0.44100
N288        N  0.28901697  0.34664038  0.22839996    -0.44100
C289        C  0.10165545  0.14760261  0.24618617    -0.00500
C290        C  0.12802092  0.15294344  0.26354128    -0.12400
C291        C  0.15151098  0.13145933  0.26462336     0.01700
C292        C  0.14886676  0.10390419  0.24794255    -0.00600
C293        C  0.12281274  0.09886853  0.23001176    -0.12400
C294        C  0.09940355  0.12050298  0.22877368     0.01600
H295        H  0.12995441  0.17369583  0.27702532     0.14600
H296        H  0.12092575  0.07810324  0.21654771     0.14600
C297        C  0.07419842  0.11494180  0.20833134     0.36200
C298        C  0.17713415  0.13769681  0.28436541     0.36100
N299        N  0.05423083  0.11042747  0.19169616    -0.44100
N300        N  0.19747188  0.14289379  0.30035067    -0.44100
C301        C  0.10180104  0.35080401  0.24863888    -0.00500
C302        C  0.09521633  0.37919367  0.23514139    -0.12400
C303        C  0.11690845  0.40278259  0.23432075     0.01700
C304        C  0.14571203  0.39864309  0.24818435    -0.00600
C305        C  0.15241557  0.37015403  0.26129366    -0.12400
C306        C  0.13114642  0.34625314  0.26126629     0.01600
H307        H  0.07322413  0.38278384  0.22446282     0.14600
H308        H  0.17450004  0.36645000  0.27174070     0.14600
C309        C  0.14033724  0.31754725  0.27464409     0.36200
C310        C  0.10956152  0.43014274  0.21745844     0.36100
N311        N  0.14810921  0.29456685  0.28509620    -0.44100
N312        N  0.10377303  0.45188391  0.20363116    -0.44100
C313        C  0.39838947  0.24888024  0.14666007    -0.00500
C314        C  0.37118350  0.26476956  0.15225327    -0.12400
C315        C  0.34836344  0.26650955  0.13013653     0.01700
C316        C  0.35244141  0.25185908  0.10162718    -0.00600
C317        C  0.37961941  0.23590956  0.09603469    -0.12400
C318        C  0.40246661  0.23419717  0.11815119     0.01600
H319        H  0.36793168  0.27645478  0.17385692     0.14600
H320        H  0.38283338  0.22418390  0.07444475     0.14600
C321        C  0.42928195  0.21637775  0.11109589     0.36200
C322        C  0.32160236  0.28441593  0.13716715     0.36100
N323        N  0.45065002  0.20206567  0.10513148    -0.44100
N324        N  0.30030759  0.29884328  0.14310645    -0.44100
C325        C  0.10155639  0.24918958  0.14751019    -0.00500
C326        C  0.13126007  0.24019449  0.15541625    -0.12400
C327        C  0.15497811  0.24023998  0.13402144     0.01700
C328        C  0.14936523  0.24972284  0.10366323    -0.00600
C329        C  0.11973421  0.25901885  0.09585172    -0.12400
C330        C  0.09598387  0.25879834  0.11717773     0.01600
H331        H  0.13601091  0.23251883  0.17841952     0.14600
H332        H  0.11497528  0.26672391  0.07285889     0.14600
C333        C  0.06642894  0.26917881  0.10704733     0.36200
C334        C  0.18438964  0.22930043  0.14394794     0.36100
N335        N  0.04280268  0.27741897  0.09874244    -0.44100
N336        N  0.20783487  0.22043014  0.15211221    -0.44100
C337        C  0.10084671  0.25145224  0.35208607    -0.00500
C338        C  0.12570305  0.23151415  0.34895873    -0.12400
C339        C  0.14869164  0.23026876  0.37108432     0.01700
C340        C  0.14692392  0.24905273  0.39733022    -0.00600
C341        C  0.12222076  0.26924447  0.40029500    -0.12400
C342        C  0.09959635  0.27098459  0.37778349     0.01600
H343        H  0.12699402  0.21651787  0.32925974     0.14600
H344        H  0.12109343  0.28444106  0.41984792     0.14600
C345        C  0.07672494  0.29451234  0.38065042     0.36200
C346        C  0.17337085  0.20893873  0.36647906     0.36100
N347        N  0.05893465  0.31386345  0.38311910    -0.44100
N348        N  0.19310148  0.19186499  0.36245616    -0.44100
C349        C  0.39655227  0.24673497  0.35133399    -0.00500
C350        C  0.36968334  0.26335404  0.34623342    -0.12400
C351        C  0.34633926  0.26413512  0.36802783     0.01700
C352        C  0.34999300  0.24861273  0.39607409    -0.00600
C353        C  0.37664231  0.23160765  0.40093745    -0.12400
C354        C  0.39953019  0.23006157  0.37873300     0.01600
H355        H  0.36695511  0.27599200  0.32515700     0.14600
H356        H  0.37923028  0.21869276  0.42186672     0.14600
C357        C  0.42469795  0.20952133  0.38390524     0.36200
C358        C  0.31914168  0.28128173  0.36093008     0.36100
N359        N  0.44447077  0.19260658  0.38816923    -0.44100
N360        N  0.29728450  0.29475764  0.35492273    -0.44100
C361        C  0.39709104  0.39898608  0.99946591    -0.00500
C362        C  0.40205776  0.37102923  0.51508214    -0.12400
C363        C  0.37978088  0.34809653  0.51621689     0.01700
C364        C  0.35251736  0.35220542  0.00096906    -0.00600
C365        C  0.34625671  0.38040547  0.98708256    -0.12400
C366        C  0.36828063  0.40351205  0.98575379     0.01600
H367        H  0.42299968  0.36811571  0.52787384     0.14600
H368        H  0.32433236  0.38410709  0.97629750     0.14600
C369        C  0.36113175  0.43071659  0.96854991     0.36200
C370        C  0.38534729  0.32204236  0.53561250     0.36100
N371        N  0.35530529  0.45227406  0.95445875    -0.44100
N372        N  0.39004042  0.30143979  0.55143313    -0.44100
C373        C  0.35216565  0.14795844  0.99960149    -0.00500
C374        C  0.38084154  0.15530502  0.01190748    -0.12400
C375        C  0.40447007  0.13388780  0.01258445     0.01700
C376        C  0.39956119  0.10403008  0.00095881    -0.00600
C377        C  0.37010565  0.09599759  0.48567864    -0.12400
C378        C  0.34703405  0.11808570  0.48483138     0.01600
H379        H  0.38484032  0.17791932  0.02134501     0.14600
H380        H  0.36635693  0.07415704  0.47449137     0.14600
C381        C  0.31935771  0.11077147  0.46849903     0.36200
C382        C  0.43315704  0.14340578  0.02575520     0.36100
N383        N  0.29718787  0.10492224  0.45543036    -0.44100
N384        N  0.45606510  0.15142678  0.03615622    -0.44100
C385        C  0.10067065  0.39728656  0.00268093    -0.00500
C386        C  0.13127635  0.40563122  0.00755500    -0.12400
C387        C  0.15456172  0.38379827  0.00817564     0.01700
C388        C  0.14775409  0.35250407  0.00295373    -0.00600
C389        C  0.12520807  0.35254153  0.47865465    -0.12400
C390        C  0.10237642  0.37492746  0.47805515     0.01600
H391        H  0.13720158  0.42942828  0.01138114     0.14600
H392        H  0.12527621  0.33463007  0.46150407     0.14600
C393        C  0.08042225  0.37446858  0.45356778     0.36200
C394        C  0.18496303  0.39441194  0.01526035     0.36100
N395        N  0.06289946  0.37458977  0.43388551    -0.44100
N396        N  0.20931041  0.40280051  0.02111579    -0.44100
C397        C  0.14780893  0.14834533  0.99973536    -0.00500
C398        C  0.15287853  0.12138806  0.01627471    -0.12400
C399        C  0.13108862  0.09797805  0.01703287     0.01700
C400        C  0.10332780  0.10134203  0.00097933    -0.00600
C401        C  0.09890259  0.12671354  0.48284240    -0.12400
C402        C  0.12077825  0.14991898  0.48122128     0.01600
H403        H  0.17387699  0.11871877  0.02903364     0.14600
H404        H  0.07851381  0.12833230  0.46898246     0.14600
C405        C  0.11522013  0.17504593  0.46065437     0.36200
C406        C  0.13773564  0.07129859  0.03520492     0.36100
N407        N  0.11021318  0.19493199  0.44403890    -0.44100
N408        N  0.14355852  0.05008196  0.04979855    -0.44100
C409        C  0.39930806  0.00224516  0.39634617    -0.00500
C410        C  0.37234968  0.01897232  0.40097167    -0.12400
C411        C  0.34912924  0.01935867  0.37894077     0.01700
C412        C  0.35247861  0.00257215  0.35148022    -0.00600
C413        C  0.37638219  0.48500451  0.34951428    -0.12400
C414        C  0.39940477  0.48416105  0.37157018     0.01600
H415        H  0.36949677  0.03206496  0.42181474     0.14600
H416        H  0.37868291  0.47113869  0.32910091     0.14600
C417        C  0.42464977  0.46363211  0.36654146     0.36200
C418        C  0.32263408  0.03805350  0.38476995     0.36100
N419        N  0.44463252  0.44691879  0.36229749    -0.44100
N420        N  0.30147737  0.05310478  0.38952658    -0.44100
C421        C  0.14824596  0.00066454  0.35259022    -0.00500
C422        C  0.11829684  0.51076701  0.34551537    -0.12400
C423        C  0.09490541  0.51159480  0.36720980     0.01700
C424        C  0.10175901  0.00220122  0.39748800    -0.00600
C425        C  0.12928036  0.98682236  0.40296296    -0.12400
C426        C  0.15234487  0.98578512  0.38090663     0.01600
H427        H  0.11392018  0.51969663  0.32288789     0.14600
H428        H  0.13257438  0.97492630  0.42438495     0.14600
C429        C  0.17937018  0.96825077  0.38768706     0.36200
C430        C  0.06617963  0.52470257  0.35794422     0.36100
N431        N  0.20095090  0.95416221  0.39327008    -0.44100
N432        N  0.04334967  0.53523240  0.35001812    -0.44100
C433        C  0.10043812  0.00163738  0.10305710    -0.00500
C434        C  0.12772261  0.48458951  0.09799219    -0.12400
C435        C  0.15088515  0.48353345  0.11990984     0.01700
C436        C  0.14687773  0.00021513  0.14789033    -0.00600
C437        C  0.11929379  0.01553056  0.15348364    -0.12400
C438        C  0.09618509  0.01637884  0.13150053     0.01600
H439        H  0.12996976  0.47105248  0.07735351     0.14600
H440        H  0.11590733  0.02733331  0.17499817     0.14600
C441        C  0.06884768  0.03339030  0.13852320     0.36200
C442        C  0.17657509  0.46369545  0.11422397     0.36100
N443        N  0.04695391  0.04698437  0.14423703    -0.44100
N444        N  0.19699152  0.44766367  0.10941392    -0.44100
C445        C  0.35073133  0.00024119  0.14670106    -0.00500
C446        C  0.34872209  0.97984945  0.12195512    -0.12400
C447        C  0.37150368  0.97910600  0.09945644     0.01700
C448        C  0.39648211  0.99945849  0.10119824    -0.00600
C449        C  0.40032077  0.51914700  0.12748244    -0.12400
C450        C  0.37840001  0.51959929  0.15079317     0.01600
H451        H  0.32978125  0.96390276  0.12066260     0.14600
H452        H  0.42063119  0.53318467  0.12968237     0.14600
C453        C  0.38368985  0.53922017  0.17678496     0.36200
C454        C  0.36991120  0.95605168  0.07585288     0.36100
N455        N  0.38804751  0.55492404  0.19760208    -0.44100
N456        N  0.36923249  0.93753025  0.05697860    -0.44100
C457        C  0.99738700  0.14557874  0.35094429    -0.00500
C458        C  0.00504890  0.15492665  0.38066752    -0.12400
C459        C  0.00488856  0.13449848  0.40509601     0.01700
C460        C  0.99735027  0.10337711  0.40006807    -0.00600
C461        C  0.49126214  0.09438566  0.37024000    -0.12400
C462        C  0.49102604  0.11500358  0.34594920     0.01600
H463        H  0.01147498  0.17850252  0.38503259     0.14600
H464        H  0.48468704  0.07084733  0.36587005     0.14600
C465        C  0.48165944  0.10324943  0.31662045     0.36200
C466        C  0.01305311  0.14658339  0.43467376     0.36100
N467        N  0.47417722  0.09301381  0.29345211    -0.44100
N468        N  0.01948763  0.15688202  0.45813314    -0.44100
C469        C  0.99946408  0.39689895  0.39827481    -0.00500
C470        C  0.51220881  0.40385469  0.36979384    -0.12400
C471        C  0.51305986  0.38174867  0.34663034     0.01700
C472        C  0.00019621  0.35177212  0.35137132    -0.00600
C473        C  0.98843392  0.34506373  0.38045876    -0.12400
C474        C  0.98790263  0.36711492  0.40370788     0.01600
H475        H  0.52242657  0.42609075  0.36568442     0.14600
H476        H  0.97914980  0.32252013  0.38504668     0.14600
C477        C  0.97439099  0.35867438  0.43256261     0.36200
C478        C  0.52841716  0.38979324  0.31860420     0.36100
N479        N  0.96363566  0.35211777  0.45576553    -0.44100
N480        N  0.54086947  0.39662579  0.29634646    -0.44100
C481        C  0.99860277  0.35105908  0.14746290    -0.00500
C482        C  0.51484558  0.37913523  0.15294037    -0.12400
C483        C  0.51562037  0.40253663  0.13112291     0.01700
C484        C  0.99936489  0.39877246  0.10376394    -0.00600
C485        C  0.98196535  0.37218075  0.09889207    -0.12400
C486        C  0.98153525  0.34840296  0.12026413     0.01600
H487        H  0.52819341  0.38159145  0.17360884     0.14600
H488        H  0.96839678  0.37004037  0.07833470     0.14600
C489        C  0.96267580  0.32202337  0.11395195     0.36200
C490        C  0.53535496  0.42847433  0.13663924     0.36100
N491        N  0.94758030  0.30093691  0.10865161    -0.44100
N492        N  0.55138657  0.44906515  0.14108992    -0.44100
C493        C  0.00190193  0.10169072  0.10175225    -0.00500
C494        C  0.48409706  0.09766982  0.12801409    -0.12400
C495        C  0.48263189  0.12008692  0.15064432     0.01700
C496        C  0.99986322  0.14634363  0.14791275    -0.00600
C497        C  0.01920914  0.15010482  0.12267890    -0.12400
C498        C  0.02064556  0.12787673  0.09980898     0.01600
H499        H  0.46965887  0.07755786  0.12980100     0.14600
H500        H  0.03378044  0.17013701  0.12120251     0.14600
C501        C  0.04272383  0.13166254  0.07562530     0.36200
C502        C  0.46154256  0.11547000  0.17554438     0.36100
N503        N  0.06064213  0.13461024  0.05645857    -0.44100
N504        N  0.44458143  0.11151936  0.19538749    -0.44100
O505        O  0.00085256  0.05075365  0.58753429    -0.80500
O506        O  0.99871952  0.04997532  0.91351740    -0.82100
O507        O  0.05133757  0.08628155  0.50116552    -0.79100
O508        O  0.45019483  0.08635999  0.50078513    -0.77500
O509        O  0.41294808  0.04977307  0.49905182    -0.79300
O510        O  0.08811665  0.04923843  0.50205108    -0.80200
O511        O  0.99880251  0.08662183  0.95053143    -0.81500
O512        O  0.00321411  0.08784950  0.55086385    -0.81800
Eu513      Eu  0.00063344  0.06216331  0.50109657     2.39200
O514        O  0.46948000  0.03167425  0.96943057    -0.89300
O515        O  0.03146215  0.03100976  0.53141328    -0.92900
C516        C  0.00269537  0.07886052  0.57884725     1.01800
C517        C  0.99839881  0.07815964  0.92243377     1.01600
C518        C  0.07937355  0.07733738  0.50192992     1.01500
C519        C  0.42196944  0.07784503  0.50000051     0.99400
H520        H  0.04404282  0.04357167  0.95622881     0.29100
O521        O  0.03129215  0.03084761  0.96895328    -1.01700
H522        H  0.45631902  0.04422319  0.54408917     0.29200
O523        O  0.46898395  0.03139909  0.53137588    -1.04200
O524        O  0.99943081  0.44919436  0.91479784    -0.81500
O525        O  0.00114781  0.45029628  0.58787213    -0.81000
O526        O  0.08644343  0.99925085  0.94972366    -0.79400
O527        O  0.41231461  0.00371297  0.94969258    -0.82800
O528        O  0.41264029  0.99983973  0.54868777    -0.80600
O529        O  0.08697243  0.00010477  0.55039860    -0.79300
O530        O  0.05006130  0.41310350  0.49971468    -0.80800
O531        O  0.44929972  0.41304071  0.50002444    -0.82700
O532        O  0.08695305  0.45025799  0.50137265    -0.79500
O533        O  0.41270599  0.45024224  0.49912734    -0.82200
O534        O  0.04975684  0.99997730  0.91269879    -0.77900
O535        O  0.04999296  0.00152417  0.58717792    -0.77900
O536        O  0.44898759  0.00001198  0.58596203    -0.77600
O537        O  0.44960993  0.00128166  0.91323543    -0.81100
O538        O  0.99951093  0.41269993  0.95204796    -0.80500
O539        O  0.00045993  0.41310026  0.55116154    -0.78800
Eu540      Eu  0.99990842  0.99964275  0.93830568     2.39800
Eu541      Eu  0.99980431  0.00072565  0.56212877     2.39600
Eu542      Eu  0.06215813  0.99984881  0.50015514     2.38400
Eu543      Eu  0.43862748  0.00024854  0.49933186     2.39900
Eu544      Eu  0.99948938  0.43769012  0.50058087     2.39800
O545        O  0.46822372  0.46901941  0.53130329    -0.93200
O546        O  0.02995046  0.46897090  0.96995085    -0.92100
C547        C  0.99942283  0.42109024  0.92385394     1.01900
C548        C  0.00139469  0.42209634  0.57925995     1.00700
C549        C  0.07782048  0.99981526  0.92155053     1.00000
C550        C  0.42140424  0.00283704  0.92166717     1.02100
C551        C  0.42096155  0.99961073  0.57685476     1.01000
C552        C  0.07814302  0.00110030  0.57849693     0.99800
C553        C  0.07814859  0.42210331  0.50046881     0.99900
C554        C  0.42127715  0.42201796  0.49917614     0.99300
H555        H  0.04340337  0.45632160  0.54410412     0.29900
O556        O  0.03054041  0.46883241  0.53138650    -1.05400
H557        H  0.45571578  0.45647494  0.95673450     0.31900
O558        O  0.46849427  0.46922137  0.96941224    -1.08000
O559        O  0.00226719  0.19983239  0.66341059    -0.80500
O560        O  0.00061555  0.19884093  0.83639291    -0.82100
O561        O  0.04850042  0.16199004  0.74847257    -0.79100
O562        O  0.44873206  0.16309532  0.75002745    -0.77500
O563        O  0.41256997  0.20068305  0.74957232    -0.79300
O564        O  0.08626539  0.19812574  0.75002459    -0.80200
O565        O  0.99917234  0.16241262  0.79920183    -0.81500
O566        O  0.99965816  0.16288877  0.70021208    -0.81800
Eu567      Eu  0.99935997  0.18822952  0.75001651     2.39200
O568        O  0.46862822  0.21954154  0.78061084    -0.89300
O569        O  0.03113329  0.21875104  0.71969135    -0.92900
C570        C  0.00119704  0.17172879  0.67223900     1.01800
C571        C  0.99972796  0.17070247  0.82735212     1.01600
C572        C  0.07674298  0.17014357  0.74885301     1.01500
C573        C  0.42080955  0.17239299  0.74963445     0.99400
H574        H  0.04377972  0.20521936  0.79411389     0.29100
O575        O  0.03122765  0.21818200  0.78152366    -1.01700
H576        H  0.45545993  0.20595924  0.70574865     0.29200
O577        O  0.46816199  0.21862532  0.71859896    -1.04200
O578        O  0.00024817  0.29976579  0.83794433    -0.81500
O579        O  0.00141570  0.29966021  0.66351724    -0.81000
O580        O  0.08770444  0.24980676  0.80101481    -0.79400
O581        O  0.41296261  0.24912402  0.79964419    -0.82800
O582        O  0.41269621  0.25193103  0.69941585    -0.80600
O583        O  0.08773222  0.24788091  0.70034873    -0.79300
O584        O  0.05090588  0.33695172  0.75100389    -0.80800
O585        O  0.45082441  0.33776603  0.75017543    -0.82700
O586        O  0.08752835  0.29963513  0.75234886    -0.79500
O587        O  0.41340520  0.30116078  0.74923359    -0.82200
O588        O  0.05064846  0.25152853  0.83775244    -0.77900
O589        O  0.05041017  0.24801221  0.66420073    -0.77900
O590        O  0.44999376  0.25017868  0.66300007    -0.77600
O591        O  0.44965520  0.24764224  0.83670110    -0.81100
O592        O  0.00140272  0.33649467  0.80098996    -0.80500
O593        O  0.00157257  0.33678399  0.70030298    -0.78800
Eu594      Eu  0.00048882  0.24962797  0.81244804     2.39800
Eu595      Eu  0.00061398  0.24987473  0.68887715     2.39600
Eu596      Eu  0.06262910  0.24914640  0.75075575     2.38400
Eu597      Eu  0.43797214  0.25062425  0.74954943     2.39900
Eu598      Eu  0.00106661  0.31183004  0.75065728     2.39800
O599        O  0.46930163  0.28119921  0.71866885    -0.93200
O600        O  0.03168234  0.28043277  0.78149559    -0.92100
C601        C  0.00095942  0.32793293  0.82912137     1.01900
C602        C  0.00142705  0.32785376  0.67219358     1.00700
C603        C  0.07881689  0.25126745  0.82909344     1.00000
C604        C  0.42160601  0.24764824  0.82772381     1.02100
C605        C  0.42179183  0.25119858  0.67138821     1.01000
C606        C  0.07858295  0.24749758  0.67232110     0.99800
C607        C  0.07879335  0.32782704  0.75205978     0.99900
C608        C  0.42259078  0.32924152  0.74973940     1.02500
H609        H  0.04501767  0.29319564  0.70709440     0.29900
O610        O  0.03210864  0.28059405  0.71978382    -1.05400
H611        H  0.45652393  0.29394085  0.79352659     0.31900
O612        O  0.46922759  0.28114072  0.78083957    -1.08000
O613        O  0.33600137  0.50018724  0.70046532    -0.80500
O614        O  0.16229094  0.50027605  0.70018916    -0.82100
O615        O  0.24950194  0.44892132  0.66445681    -0.79100
O616        O  0.24930815  0.04954651  0.66306304    -0.77500
O617        O  0.24837286  0.08693917  0.69958276    -0.79300
O618        O  0.24870862  0.41200897  0.70131988    -0.80200
O619        O  0.19956100  0.50017379  0.66372373    -0.81500
O620        O  0.29927903  0.49954985  0.66358917    -0.81800
Eu621      Eu  0.24936193  0.49950182  0.68920721     2.39200
O622        O  0.21874631  0.03069959  0.71880304    -0.89300
O623        O  0.28039075  0.46869964  0.72006251    -0.92900
C624        C  0.32738534  0.50006830  0.67234001     1.01800
C625        C  0.17135486  0.50035314  0.67212244     1.01600
C626        C  0.24888216  0.42072286  0.67322216     1.01500
C627        C  0.24852075  0.07780919  0.67154569     0.99400
H628        H  0.20583859  0.45535680  0.70737830     0.29100
O629        O  0.21851736  0.46818049  0.72009475    -1.01700
H630        H  0.29327719  0.04399761  0.70608088     0.29200
O631        O  0.28065569  0.03124890  0.71892256    -1.04200
O632        O  0.16201448  0.49946096  0.80067721    -0.81500
O633        O  0.33598443  0.50084548  0.80082702    -0.81000
O634        O  0.20013475  0.41165003  0.75333660    -0.79400
O635        O  0.19819430  0.08594247  0.75029641    -0.82800
O636        O  0.29906070  0.08779084  0.74966141    -0.80600
O637        O  0.30031410  0.41277620  0.74828509    -0.79300
O638        O  0.25088251  0.45074808  0.83858199    -0.80800
O639        O  0.25022525  0.04961265  0.83691591    -0.82700
O640        O  0.25115402  0.41334020  0.80205157    -0.79500
O641        O  0.25013429  0.08689284  0.80051298    -0.82200
O642        O  0.16321184  0.44860079  0.75069866    -0.77900
O643        O  0.33690167  0.45022609  0.74964809    -0.77900
O644        O  0.33589349  0.05078593  0.74962298    -0.77600
O645        O  0.16153795  0.04863611  0.74964454    -0.81100
O646        O  0.19908195  0.49918230  0.83721645    -0.80500
O647        O  0.29900547  0.50148770  0.83759595    -0.78800
Eu648      Eu  0.18724117  0.49943977  0.75057090     2.39800
Eu649      Eu  0.31117065  0.50015822  0.75073162     2.39600
Eu650      Eu  0.24981620  0.43746337  0.75125076     2.38400
Eu651      Eu  0.24918753  0.06214517  0.74986637     2.39900
Eu652      Eu  0.24920456  0.49983906  0.81232511     2.39800
O653        O  0.28051626  0.03120957  0.78031450    -0.93200
O654        O  0.21821162  0.46848539  0.78170981    -0.92100
C655        C  0.17094179  0.49915100  0.82872557     1.01900
C656        C  0.32710979  0.50158255  0.82889388     1.00700
C657        C  0.17213295  0.42051666  0.75209693     1.00000
C658        C  0.17012449  0.07684008  0.75017129     1.02100
C659        C  0.32712993  0.07893477  0.74991551     1.01000
C660        C  0.32834930  0.42196691  0.74832937     0.99800
C661        C  0.25152643  0.42255771  0.83007952     0.99900
C662        C  0.25018091  0.07783179  0.82857420     1.02500
H663        H  0.29368009  0.45630830  0.79454954     0.29900
O664        O  0.28072539  0.46880353  0.78190061    -1.05400
H665        H  0.20604581  0.04351661  0.79401540     0.31900
O666        O  0.21879514  0.03091689  0.78116002    -1.08000
O667        O  0.19974015  0.16345237  0.00059339    -0.80500
O668        O  0.19995199  0.33658007  0.00079535    -0.82100
O669        O  0.16331979  0.24719258  0.55021629    -0.79100
O670        O  0.16363221  0.25192104  0.95033560    -0.77500
O671        O  0.20071121  0.25094171  0.91364187    -0.79300
O672        O  0.20044453  0.24746260  0.58665207    -0.80200
O673        O  0.16277620  0.30010095  0.00197673    -0.81500
O674        O  0.16300297  0.20052033  0.99990421    -0.81800
Eu675      Eu  0.18850861  0.25044638  0.00070228     2.39200
O676        O  0.21919346  0.28145745  0.96939318    -0.89300
O677        O  0.21877052  0.21924003  0.53039343    -0.92900
C678        C  0.17168174  0.17234826  0.99998904     1.01800
C679        C  0.17171311  0.32824549  0.00186846     1.01600
C680        C  0.17231216  0.24634499  0.57826228     1.01500
C681        C  0.17262540  0.25146447  0.92225684     0.99400
H682        H  0.20605470  0.29377330  0.54353124     0.29100
O683        O  0.21867068  0.28107404  0.53064397    -1.01700
H684        H  0.20655205  0.20658680  0.95679924     0.29200
O685        O  0.21926054  0.21928604  0.96960034    -1.04200
O686        O  0.30057953  0.33716040  0.00081495    -0.81500
O687        O  0.30000017  0.16304084  0.00011797    -0.81000
O688        O  0.24976274  0.30028459  0.58637090    -0.79400
O689        O  0.24998931  0.30101026  0.91422778    -0.82800
O690        O  0.25103738  0.20035979  0.91351641    -0.80600
O691        O  0.25096950  0.19993160  0.58644259    -0.79300
O692        O  0.33696099  0.25050587  0.54944542    -0.80800
O693        O  0.33712197  0.24830689  0.94895085    -0.82700
O694        O  0.30012291  0.25226852  0.58635570    -0.79500
O695        O  0.29968681  0.24922317  0.91275814    -0.82200
O696        O  0.25088052  0.33720488  0.54953240    -0.77900
O697        O  0.24972705  0.16252487  0.55000791    -0.77900
O698        O  0.25122644  0.16330835  0.95018967    -0.77600
O699        O  0.25048531  0.33816783  0.95101843    -0.81100
O700        O  0.33726615  0.30012668  0.99991239    -0.80500
O701        O  0.33699747  0.19991857  0.99942285    -0.78800
Eu702      Eu  0.25050503  0.31217351  0.00013900     2.39800
Eu703      Eu  0.25008364  0.18825605  0.00057350     2.39600
Eu704      Eu  0.25009403  0.25005217  0.56120610     2.38400
Eu705      Eu  0.25030143  0.25042007  0.93872118     2.39900
Eu706      Eu  0.31233641  0.25007576  0.99953883     2.39800
O707        O  0.28092699  0.21906702  0.96928460    -0.93200
O708        O  0.28082119  0.28080922  0.52990289    -0.92100
C709        C  0.32861790  0.32827094  0.00070622     1.01900
C710        C  0.32812174  0.17176115  0.99957222     1.00700
C711        C  0.25055533  0.32846831  0.57766760     1.00000
C712        C  0.25005690  0.32921998  0.92303165     1.02100
C713        C  0.25162293  0.17216885  0.92209035     1.01000
C714        C  0.25058938  0.17162959  0.57803081     0.99800
C715        C  0.32823053  0.25202874  0.57758833     0.99900
C716        C  0.32786982  0.24847052  0.92097488     1.02500
H717        H  0.29381321  0.20599409  0.54337594     0.29900
O718        O  0.28101023  0.21857111  0.53064855    -1.05400
H719        H  0.29443677  0.29423883  0.95604250     0.31900
O720        O  0.28173643  0.28156705  0.96887532    -1.08000
C721        C  0.25068175  0.14782268  0.60219420    -0.00500
C722        C  0.23605023  0.11976271  0.59642909    -0.12400
C723        C  0.23465923  0.09683557  0.61864563     0.01700
C724        C  0.24845307  0.10157417  0.64741412    -0.00600
C725        C  0.26310836  0.12958346  0.65318460    -0.12400
C726        C  0.26448581  0.15252636  0.63099797     0.01600
H727        H  0.22497932  0.11592299  0.57465201     0.14600
H728        H  0.27415232  0.13338669  0.67498526     0.14600
C729        C  0.28127329  0.18006632  0.63824295     0.36200
C730        C  0.21771364  0.06932903  0.61163442     0.36100
N731        N  0.29479699  0.20202059  0.64426223    -0.44100
N732        N  0.20403193  0.04738463  0.60595566    -0.44100
C733        C  0.25054756  0.35232837  0.60190183    -0.00500
C734        C  0.23482729  0.34653251  0.62926879    -0.12400
C735        C  0.23399559  0.36822449  0.65283472     0.01700
C736        C  0.24880227  0.39677549  0.64912795    -0.00600
C737        C  0.26456254  0.40252076  0.62181747    -0.12400
C738        C  0.26598941  0.38055440  0.59857244     0.01600
H739        H  0.22291104  0.32496960  0.63223175     0.14600
H740        H  0.27671197  0.42397244  0.61896455     0.14600
C741        C  0.28521454  0.38691849  0.57258866     0.36200
C742        C  0.21724302  0.36067258  0.68021364     0.36100
N743        N  0.30101321  0.39210941  0.55207998    -0.44100
N744        N  0.20396278  0.35450478  0.70219077    -0.44100
C745        C  0.25195796  0.39900601  0.85418453    -0.00500
C746        C  0.23390044  0.37279364  0.85016798    -0.12400
C747        C  0.23220825  0.35033347  0.87271520     0.01700
C748        C  0.24998134  0.35313745  0.89934257    -0.00600
C749        C  0.26787102  0.37946990  0.90359186    -0.12400
C750        C  0.26875508  0.40252946  0.88151259     0.01600
H751        H  0.22001942  0.37045186  0.82984224     0.14600
H752        H  0.28136258  0.38196050  0.92416925     0.14600
C753        C  0.28747408  0.42912739  0.88745859     0.36200
C754        C  0.21006237  0.32612657  0.86912276     0.36100
N755        N  0.30241271  0.45034469  0.89271775    -0.44100
N756        N  0.19182444  0.30716404  0.86640474    -0.44100
C757        C  0.25049002  0.10152534  0.85294511    -0.00500
C758        C  0.26356438  0.13016024  0.84657504    -0.12400
C759        C  0.26475647  0.15326539  0.86868667     0.01700
C760        C  0.25222629  0.14816258  0.89802748    -0.00600
C761        C  0.23956760  0.11937346  0.90454687    -0.12400
C762        C  0.23863985  0.09615828  0.88255760     0.01600
H763        H  0.27339493  0.13443677  0.82427486     0.14600
H764        H  0.22987912  0.11502809  0.92689618     0.14600
C765        C  0.22491425  0.06736299  0.89121806     0.36200
C766        C  0.27992150  0.18149805  0.86067698     0.36100
N767        N  0.21407877  0.04432951  0.89847303    -0.44100
N768        N  0.29213917  0.20400627  0.85400774    -0.44100
C769        C  0.39646969  0.14886033  0.74939815    -0.00500
C770        C  0.40127767  0.12144992  0.76524048    -0.12400
C771        C  0.37887751  0.09867260  0.76616478     0.01700
C772        C  0.35109696  0.10280910  0.75041416    -0.00600
C773        C  0.34616488  0.13029588  0.73470181    -0.12400
C774        C  0.36846963  0.15323558  0.73404285     0.01600
H775        H  0.42233672  0.11812929  0.77768220     0.14600
H776        H  0.32499477  0.13367983  0.72241567     0.14600
C777        C  0.36234391  0.18047504  0.71650581     0.36200
C778        C  0.38440748  0.07214338  0.78492170     0.36100
N779        N  0.35742925  0.20231031  0.70248976    -0.44100
N780        N  0.38881865  0.05104360  0.80015802    -0.44100
C781        C  0.39887312  0.35334889  0.74945690    -0.00500
C782        C  0.37508610  0.35131445  0.72813379    -0.12400
C783        C  0.35218183  0.37363979  0.72693600     0.01700
C784        C  0.35261222  0.39842035  0.74765914    -0.00600
C785        C  0.37653702  0.40058135  0.76877611    -0.12400
C786        C  0.39937929  0.37824611  0.77001913     0.01600
H787        H  0.37469695  0.33247958  0.71199277     0.14600
H788        H  0.37686907  0.41933615  0.78501544     0.14600
C789        C  0.42175671  0.38035369  0.79400257     0.36200
C790        C  0.32949885  0.37143443  0.70321292     0.36100
N791        N  0.43924864  0.38210801  0.81363322    -0.44100
N792        N  0.31161631  0.36967551  0.68392133    -0.44100
C793        C  0.10000999  0.14566751  0.74881732    -0.00500
C794        C  0.12649913  0.15012772  0.76615948    -0.12400
C795        C  0.14903463  0.12765631  0.76768460     0.01700
C796        C  0.14596122  0.10043513  0.75058402    -0.00600
C797        C  0.11916847  0.09559841  0.73367277    -0.12400
C798        C  0.09612444  0.11774816  0.73285472     0.01600
H799        H  0.12918847  0.17092307  0.77943970     0.14600
H800        H  0.11636354  0.07458946  0.72075605     0.14600
C801        C  0.06913184  0.11137766  0.71503177     0.36200
C802        C  0.17393245  0.13229817  0.78869470     0.36100
N803        N  0.04741985  0.10614693  0.70096864    -0.44100
N804        N  0.19353056  0.13602837  0.80593920    -0.44100
C805        C  0.10256098  0.35155991  0.75269163    -0.00500
C806        C  0.10342134  0.37325699  0.72923774    -0.12400
C807        C  0.12609510  0.39578084  0.72862400     0.01700
C808        C  0.14834144  0.39673431  0.75180667    -0.00600
C809        C  0.14736562  0.37512439  0.77539631    -0.12400
C810        C  0.12432074  0.35291659  0.77625916     0.01600
H811        H  0.08662095  0.37228984  0.71112884     0.14600
H812        H  0.16400407  0.37624796  0.79364028     0.14600
C813        C  0.12191134  0.33333406  0.80260619     0.36200
C814        C  0.12681925  0.41690633  0.70335915     0.36100
N815        N  0.11944088  0.31802382  0.82394335    -0.44100
N816        N  0.12752262  0.43377009  0.68307330    -0.44100
C817        C  0.39819958  0.25150904  0.64706369    -0.00500
C818        C  0.37172377  0.26906914  0.65120501    -0.12400
C819        C  0.34894727  0.27006602  0.62879022     0.01700
C820        C  0.35222948  0.25293678  0.60154791    -0.00600
C821        C  0.37887455  0.23566777  0.59730230    -0.12400
C822        C  0.40162198  0.23467271  0.61969586     0.01600
H823        H  0.36899612  0.28245641  0.67187823     0.14600
H824        H  0.38161789  0.22219866  0.57668652     0.14600
C825        C  0.42750165  0.21492370  0.61459051     0.36200
C826        C  0.32310155  0.28983453  0.63393925     0.36100
N827        N  0.44821696  0.19904505  0.61064564    -0.44100
N828        N  0.30253828  0.30582195  0.63821570    -0.44100
C829        C  0.10200968  0.24628707  0.64768158    -0.00500
C830        C  0.13166389  0.23658158  0.65489775    -0.12400
C831        C  0.15465042  0.23532393  0.63271450     0.01700
C832        C  0.14847209  0.24476198  0.60244713    -0.00600
C833        C  0.11862992  0.25358773  0.59506294    -0.12400
C834        C  0.09550166  0.25420965  0.61700577     0.01600
H835        H  0.13692501  0.22945170  0.67796300     0.14600
H836        H  0.11326615  0.26059381  0.57198260     0.14600
C837        C  0.06557188  0.26358085  0.60697572     0.36200
C838        C  0.18388828  0.22316110  0.64169610     0.36100
N839        N  0.04161923  0.27085251  0.59870037    -0.44100
N840        N  0.20718307  0.21321843  0.64901388    -0.44100
C841        C  0.10278435  0.25219905  0.85303207    -0.00500
C842        C  0.12966024  0.23535690  0.84851734    -0.12400
C843        C  0.15270208  0.23492040  0.87057951     0.01700
C844        C  0.14903927  0.25147142  0.89809230    -0.00600
C845        C  0.12244471  0.26871888  0.90243200    -0.12400
C846        C  0.09961227  0.26955081  0.88013842     0.01600
H847        H  0.13251555  0.22205596  0.82780836     0.14600
H848        H  0.11977763  0.28218672  0.92306645     0.14600
C849        C  0.07418483  0.28989384  0.88501546     0.36200
C850        C  0.17943374  0.21655799  0.86466922     0.36100
N851        N  0.05415706  0.30658037  0.88915120    -0.44100
N852        N  0.20094041  0.20200173  0.85994750    -0.44100
C853        C  0.39738700  0.24651710  0.85129575    -0.00500
C854        C  0.37111326  0.26428149  0.84724390    -0.12400
C855        C  0.34796896  0.26476197  0.86924379     0.01700
C856        C  0.35123588  0.24780012  0.89649160    -0.00600
C857        C  0.37715739  0.22938618  0.90016871    -0.12400
C858        C  0.39975726  0.22806962  0.87757221     0.01600
H859        H  0.36876204  0.27813857  0.82689622     0.14600
H860        H  0.37931902  0.21526528  0.92035595     0.14600
C861        C  0.42375331  0.20582544  0.88074996     0.36200
C862        C  0.32144201  0.28333520  0.86334460     0.36100
N863        N  0.44252980  0.18746787  0.88307665    -0.44100
N864        N  0.30008969  0.29798559  0.85835676    -0.44100
C865        C  0.39727020  0.39810258  0.49863907    -0.00500
C866        C  0.40333580  0.37077392  0.01336304    -0.12400
C867        C  0.38156259  0.34741699  0.01407108     0.01700
C868        C  0.35214957  0.35169946  0.50003774    -0.00600
C869        C  0.34738179  0.37874980  0.48351131    -0.12400
C870        C  0.36955209  0.40183269  0.48264192     0.01600
H871        H  0.42530228  0.36696078  0.02401927     0.14600
H872        H  0.32639481  0.38170795  0.47080741     0.14600
C873        C  0.36357520  0.42855786  0.46429770     0.36200
C874        C  0.38964367  0.31911179  0.02895000     0.36100
N875        N  0.35871591  0.44994777  0.44959960    -0.44100
N876        N  0.39624037  0.29638839  0.04068800    -0.44100
C877        C  0.35167066  0.14695792  0.49877138    -0.00500
C878        C  0.37961763  0.15280616  0.51332176    -0.12400
C879        C  0.40259071  0.13063765  0.51435041     0.01700
C880        C  0.39811108  0.10192467  0.50011522    -0.00600
C881        C  0.37090598  0.09678380  0.98852456    -0.12400
C882        C  0.34741349  0.11829885  0.98757036     0.01600
H883        H  0.38332629  0.17460403  0.52459574     0.14600
H884        H  0.36688000  0.07424141  0.97893889     0.14600
C885        C  0.31917161  0.10938052  0.97311019     0.36200
C886        C  0.42992501  0.13752951  0.53140607     0.36100
N887        N  0.29662462  0.10205944  0.96149657    -0.44100
N888        N  0.45186591  0.14276846  0.54509680    -0.44100
C889        C  0.10212452  0.39839383  0.50015382    -0.00500
C890        C  0.12544648  0.39954234  0.52199333    -0.12400
C891        C  0.14854322  0.37740748  0.52238823     0.01700
C892        C  0.14842831  0.35346232  0.50065078    -0.00600
C893        C  0.11704375  0.34406008  0.99879372    -0.12400
C894        C  0.09364183  0.36580438  0.99895823     0.01600
H895        H  0.12543337  0.41762093  0.53898278     0.14600
H896        H  0.11108102  0.32023105  0.99525262     0.14600
C897        C  0.06275983  0.35476757  0.99528670     0.36200
C898        C  0.17142831  0.37930744  0.54595600     0.36100
N899        N  0.03793778  0.34611485  0.99264519    -0.44100
N900        N  0.18957929  0.38113403  0.56499246    -0.44100
C901        C  0.14768686  0.14773556  0.49874788    -0.00500
C902        C  0.15207685  0.12206920  0.51738676    -0.12400
C903        C  0.13007637  0.09897327  0.51917655     0.01700
C904        C  0.10318233  0.10118051  0.50163339    -0.00600
C905        C  0.09830668  0.12829627  0.98438106    -0.12400
C906        C  0.12021504  0.15159963  0.98343923     0.01600
H907        H  0.17246839  0.12042764  0.53126223     0.14600
H908        H  0.07734642  0.13095987  0.97157106     0.14600
C909        C  0.11416656  0.17787862  0.96448507     0.36200
C910        C  0.13513550  0.07428522  0.54040053     0.36100
N911        N  0.10908593  0.19875658  0.94914395    -0.44100
N912        N  0.13957923  0.05484595  0.55768820    -0.44100
C913        C  0.39781093  0.00345288  0.89735274    -0.00500
C914        C  0.37265239  0.02315756  0.90022214    -0.12400
C915        C  0.35013730  0.02443270  0.87749793     0.01700
C916        C  0.35225653  0.00526590  0.85157934    -0.00600
C917        C  0.37845424  0.48645735  0.84707155    -0.12400
C918        C  0.40182378  0.48586608  0.86873641     0.01600
H919        H  0.37090409  0.03804334  0.91996332     0.14600
H920        H  0.38148338  0.47421326  0.82574049     0.14600
C921        C  0.42878933  0.46837514  0.86154056     0.36200
C922        C  0.32609305  0.04674820  0.88048203     0.36100
N923        N  0.45026461  0.45430308  0.85542849    -0.44100
N924        N  0.30707616  0.06490708  0.88273590    -0.44100
C925        C  0.14888033  0.99903852  0.85307887    -0.00500
C926        C  0.11898564  0.51318627  0.84673437    -0.12400
C927        C  0.09579949  0.51407535  0.86868863     0.01700
C928        C  0.10199171  0.00018092  0.89774618    -0.00600
C929        C  0.12932425  0.98441101  0.90310832    -0.12400
C930        C  0.15281266  0.98405044  0.88139832     0.01600
H931        H  0.11526389  0.52411398  0.82487513     0.14600
H932        H  0.13238440  0.97223375  0.92440445     0.14600
C933        C  0.18050551  0.96793116  0.88892574     0.36200
C934        C  0.06827059  0.53055781  0.86131795     0.36100
N935        N  0.20277027  0.95530752  0.89526611    -0.44100
N936        N  0.04635865  0.54389905  0.85523633    -0.44100
C937        C  0.10220951  0.00115005  0.60236123    -0.00500
C938        C  0.12891990  0.48792571  0.59707620    -0.12400
C939        C  0.15198812  0.48681723  0.61907551     0.01700
C940        C  0.14906437  0.99910232  0.64687668    -0.00600
C941        C  0.12164477  0.01457203  0.65271709    -0.12400
C942        C  0.09839501  0.01578604  0.63091382     0.01600
H943        H  0.13243617  0.47648454  0.57538678     0.14600
H944        H  0.11846469  0.02620344  0.67435747     0.14600
C945        C  0.07137650  0.03309410  0.63832239     0.36200
C946        C  0.17930749  0.46997990  0.61164021     0.36100
N947        N  0.04981174  0.04699553  0.64451743    -0.44100
N948        N  0.20109851  0.45646119  0.60538355    -0.44100
C949        C  0.35217610  0.99931528  0.64759040    -0.00500
C950        C  0.34561018  0.98672225  0.61880293    -0.12400
C951        C  0.36747379  0.98637727  0.59547249     0.01700
C952        C  0.39673137  0.99917887  0.60058695    -0.00600
C953        C  0.40256943  0.51237806  0.63000313    -0.12400
C954        C  0.38053008  0.51350447  0.65308434     0.01600
H955        H  0.32341143  0.97658082  0.61459462     0.14600
H956        H  0.42464146  0.52289583  0.63397100     0.14600
C957        C  0.38824022  0.52962760  0.68081218     0.36200
C958        C  0.35948384  0.97161154  0.56705878     0.36100
N959        N  0.39457817  0.54268122  0.70289888    -0.44100
N960        N  0.35310253  0.95972866  0.54433501    -0.44100
C961        C  0.99930047  0.14642681  0.85112912    -0.00500
C962        C  0.00470646  0.15496469  0.88155050    -0.12400
C963        C  0.00353815  0.13368583  0.90520685     0.01700
C964        C  0.99790873  0.10239594  0.89865184    -0.00600
C965        C  0.49200124  0.09484898  0.86921440    -0.12400
C966        C  0.49242396  0.11615523  0.84551289     0.01600
H967        H  0.00955417  0.17865191  0.88716821     0.14600
H968        H  0.48668296  0.07120932  0.86383074     0.14600
C969        C  0.48573490  0.10490764  0.81524855     0.36200
C970        C  0.00796213  0.14520993  0.93580012     0.36100
N971        N  0.48057241  0.09559554  0.79107932    -0.44100
N972        N  0.01117851  0.15466950  0.96025339    -0.44100
C973        C  0.99949077  0.39688429  0.90000103    -0.00500
C974        C  0.50711093  0.40499706  0.86957253    -0.12400
C975        C  0.50710175  0.38379206  0.84571584     0.01700
C976        C  0.00084214  0.35210043  0.85306628    -0.00600
C977        C  0.98680165  0.34588054  0.88123281    -0.12400
C978        C  0.98570595  0.36793604  0.90443682     0.01600
H979        H  0.51411827  0.42830819  0.86477459     0.14600
H980        H  0.97596140  0.32387361  0.88495157     0.14600
C981        C  0.96882159  0.36071974  0.93181754     0.36200
C982        C  0.51491320  0.39505569  0.81576045     0.36100
N983        N  0.95510885  0.35503829  0.95365697    -0.44100
N984        N  0.52055464  0.40465181  0.79183614    -0.44100
C985        C  0.00141787  0.35169584  0.64816192    -0.00500
C986        C  0.51459445  0.37926674  0.65316607    -0.12400
C987        C  0.51490927  0.40258031  0.63135635     0.01700
C988        C  0.00233093  0.39824501  0.60327904    -0.00600
C989        C  0.98709209  0.37049946  0.59793544    -0.12400
C990        C  0.98616232  0.34752685  0.62005595     0.01600
H991        H  0.52585017  0.38304680  0.67486062     0.14600
H992        H  0.97495433  0.36706689  0.57666351     0.14600
C993        C  0.96771737  0.32083782  0.61382224     0.36200
C994        C  0.53000340  0.43093627  0.63922190     0.36100
N995        N  0.95263467  0.29972034  0.60862150    -0.44100
N996        N  0.54184714  0.45368823  0.64581304    -0.44100
C997        C  0.00336940  0.10246693  0.60285320    -0.00500
C998        C  0.48171243  0.10146693  0.62512450    -0.12400
C999        C  0.48053038  0.12384389  0.64786029     0.01700
C1000       C  0.00157768  0.14781116  0.64855806    -0.00600
C1001       C  0.02469305  0.14816036  0.62641372    -0.12400
C1002       C  0.02593354  0.12553422  0.60377838     0.01600
H1003       H  0.46422461  0.08389016  0.62431431     0.14600
H1004       H  0.04212816  0.16579080  0.62719167     0.14600
C1005       C  0.05144440  0.12552491  0.58293396     0.36200
C1006       C  0.45559033  0.12309195  0.66936759     0.36100
N1007       N  0.07220500  0.12554566  0.56662693    -0.44100
N1008       N  0.43555698  0.12256380  0.68654810    -0.44100
O1009       O  0.00046739  0.55198802  0.08643838    -0.80500
O1010       O  0.99784259  0.55020051  0.41416190    -0.82100
O1011       O  0.05084255  0.58659196  0.00069787    -0.79100
O1012       O  0.45105069  0.58804590  0.99959012    -0.77500
O1013       O  0.41364253  0.55161204  0.99933028    -0.79300
O1014       O  0.08749079  0.54955568  0.00151634    -0.80200
O1015       O  0.99811805  0.58736033  0.45076791    -0.81500
O1016       O  0.00257443  0.58855933  0.04923900    -0.81800
Eu1017     Eu  0.00026202  0.56229880  0.00023503     2.39200
O1018       O  0.46864763  0.53191332  0.46976314    -0.89300
O1019       O  0.03054974  0.53123489  0.03135215    -0.92900
C1020       C  0.00204285  0.57999388  0.07729881     1.01800
C1021       C  0.99778626  0.57848575  0.42269357     1.01600
C1022       C  0.07889969  0.57773779  0.00156479     1.01500
C1023       C  0.42282782  0.57967769  0.99960713     0.99400
H1024       H  0.04293269  0.54389752  0.45660740     0.29100
O1025       O  0.03027834  0.53104862  0.46931623    -1.01700
H1026       H  0.45614557  0.54527395  0.04334089     0.29200
O1027       O  0.46868875  0.53219316  0.03078143    -1.04200
O1028       O  0.99993400  0.94939252  0.41375476    -0.81500
O1029       O  0.99906313  0.95103965  0.08814083    -0.81000
O1030       O  0.08521045  0.50022752  0.44935145    -0.79400
O1031       O  0.41201382  0.50234552  0.45053207    -0.82800
O1032       O  0.41181600  0.50075135  0.04928312    -0.80600
O1033       O  0.08610159  0.50082618  0.05078010    -0.79300
O1034       O  0.04984655  0.91318185  0.99922452    -0.80800
O1035       O  0.44934547  0.91371031  0.99938072    -0.82700
O1036       O  0.08700229  0.95006005  0.00046499    -0.79500
O1037       O  0.41260492  0.95070549  0.99753316    -0.82200
O1038       O  0.04815539  0.50032532  0.41279881    -0.77900
O1039       O  0.04928045  0.50231138  0.08779794    -0.77900
O1040       O  0.44845114  0.50178011  0.08639488    -0.77600
O1041       O  0.44893243  0.50102964  0.41370030    -0.81100
O1042       O  0.00022881  0.91270736  0.45078760    -0.80500
O1043       O  0.99897448  0.91377742  0.05149890    -0.78800
Eu1044     Eu  0.99871155  0.49981987  0.43867914     2.39800
Eu1045     Eu  0.99919175  0.50111151  0.06285412     2.39600
Eu1046     Eu  0.06132039  0.50001251  0.00047088     2.38400
Eu1047     Eu  0.43776939  0.50112107  0.99960751     2.39900
Eu1048     Eu  0.99957818  0.93826070  0.00094711     2.39800
O1049       O  0.46760412  0.96925401  0.03121034    -0.93200
O1050       O  0.03116843  0.96887032  0.46923743    -0.92100
C1051       C  0.99976848  0.92117427  0.42264212     1.01900
C1052       C  0.99903514  0.92283700  0.07955980     1.00700
C1053       C  0.07628628  0.50049015  0.42125227     1.00000
C1054       C  0.42077901  0.50176113  0.42241703     1.02100
C1055       C  0.42037960  0.50112077  0.07743364     1.01000
C1056       C  0.07735132  0.50195156  0.07890336     0.99800
C1057       C  0.07798051  0.92200709  0.99948539     0.99900
C1058       C  0.42136320  0.92253287  0.99784852     0.99300
H1059       H  0.04326607  0.95635368  0.04456397     0.29900
O1060       O  0.03069275  0.96903928  0.03173502    -1.05400
H1061       H  0.45690091  0.95639208  0.45607687     0.31900
O1062       O  0.46963915  0.96897855  0.46895886    -1.08000
O1063       O  0.99995832  0.70106134  0.16184847    -0.80500
O1064       O  0.99795081  0.69681216  0.33382082    -0.82100
O1065       O  0.04969938  0.66402481  0.24681370    -0.79100
O1066       O  0.44870361  0.66330393  0.24854022    -0.77500
O1067       O  0.41172270  0.70015948  0.24813222    -0.79300
O1068       O  0.08665296  0.70104164  0.24864412    -0.80200
O1069       O  0.99863857  0.66007220  0.29681170    -0.81500
O1070       O  0.99918679  0.66384331  0.19838169    -0.81800
Eu1071     Eu  0.99893838  0.68802649  0.24850459     2.39200
O1072       O  0.46815378  0.71814222  0.28016894    -0.89300
O1073       O  0.03020070  0.71975503  0.21856214    -0.92900
C1074       C  0.99949317  0.67288837  0.17046962     1.01800
C1075       C  0.99812941  0.66857016  0.32496226     1.01600
C1076       C  0.07782238  0.67289548  0.24720063     1.01500
C1077       C  0.42058889  0.67213119  0.24794643     0.99400
H1078       H  0.04247794  0.70548495  0.29267181     0.29100
O1079       O  0.02983087  0.71847905  0.28021904    -1.01700
H1080       H  0.45580699  0.70588828  0.20545833     0.29200
O1081       O  0.46832255  0.71857905  0.21845170    -1.04200
O1082       O  0.99928825  0.79897637  0.33696656    -0.81500
O1083       O  0.99622529  0.80042442  0.16273772    -0.81000
O1084       O  0.08508214  0.74950061  0.30131579    -0.79400
O1085       O  0.41252476  0.74719910  0.29998971    -0.82800
O1086       O  0.41272915  0.74989506  0.19893146    -0.80600
O1087       O  0.08583808  0.75260801  0.19986854    -0.79300
O1088       O  0.04769410  0.83812384  0.25108366    -0.80800
O1089       O  0.44842684  0.83574450  0.24870170    -0.82700
O1090       O  0.08490681  0.80158956  0.25320512    -0.79500
O1091       O  0.41131007  0.79922745  0.24919000    -0.82200
O1092       O  0.04770605  0.74800274  0.33766395    -0.77900
O1093       O  0.04913562  0.75214881  0.16299916    -0.77900
O1094       O  0.45008030  0.74913869  0.16255034    -0.77600
O1095       O  0.44910616  0.74616528  0.33708470    -0.81100
O1096       O  0.99880095  0.83599552  0.30026975    -0.80500
O1097       O  0.99708586  0.83695507  0.20008609    -0.78800
Eu1098     Eu  0.99829374  0.74857827  0.31145645     2.39800
Eu1099     Eu  0.99906974  0.75062542  0.18785237     2.39600
Eu1100     Eu  0.06085783  0.75068489  0.25028605     2.38400
Eu1101     Eu  0.43722945  0.74952468  0.24954833     2.39900
Eu1102     Eu  0.99840247  0.81154581  0.25011426     2.39800
O1103       O  0.46799663  0.78070820  0.21876888    -0.93200
O1104       O  0.02901631  0.78052730  0.28117832    -0.92100
C1105       C  0.99951732  0.82725685  0.32830078     1.01900
C1106       C  0.99598629  0.82845176  0.17187888     1.00700
C1107       C  0.07595199  0.74864734  0.32939998     1.00000
C1108       C  0.42110116  0.74593238  0.32813897     1.02100
C1109       C  0.42189347  0.74937795  0.17090015     1.01000
C1110       C  0.07720735  0.75296824  0.17167669     0.99800
C1111       C  0.07580344  0.82967061  0.25281659     0.99900
C1112       C  0.42023793  0.82738170  0.24859997     1.02500
H1113       H  0.04257270  0.79487693  0.20660043     0.29900
O1114       O  0.03005772  0.78163338  0.21902605    -1.05400
H1115       H  0.45487052  0.79277669  0.29413191     0.31900
O1116       O  0.46772055  0.78022760  0.28133138    -1.08000
O1117       O  0.33573730  0.00011983  0.19871765    -0.80500
O1118       O  0.16203109  0.00123751  0.19991694    -0.82100
O1119       O  0.24951216  0.95049808  0.16299832    -0.79100
O1120       O  0.24769393  0.55148027  0.16411768    -0.77500
O1121       O  0.24932351  0.58838790  0.20117666    -0.79300
O1122       O  0.24867771  0.91369783  0.19986389    -0.80200
O1123       O  0.19891284  0.00025523  0.16305508    -0.81500
O1124       O  0.29872460  0.99922558  0.16195898    -0.81800
Eu1125     Eu  0.24893317  0.00051581  0.18800123     2.39200
O1126       O  0.21855324  0.53181929  0.21944549    -0.89300
O1127       O  0.27917237  0.96930858  0.21904062    -0.92900
C1128       C  0.32684449  0.99974811  0.17064695     1.01800
C1129       C  0.17081624  0.00051869  0.17179753     1.01600
C1130       C  0.24924085  0.92236872  0.17178907     1.01500
C1131       C  0.24817512  0.57965974  0.17307141     0.99400
H1132       H  0.20462928  0.95688046  0.20623510     0.29100
O1133       O  0.21748980  0.96956817  0.21882747    -1.01700
H1134       H  0.29329077  0.54434621  0.20714269     0.29200
O1135       O  0.28054577  0.53151242  0.21978090    -1.04200
O1136       O  0.16281059  0.00150858  0.30042713    -0.81500
O1137       O  0.33694075  0.00019854  0.29938424    -0.81000
O1138       O  0.19729782  0.91405488  0.25143149    -0.79400
O1139       O  0.19933962  0.58769498  0.25009836    -0.82800
O1140       O  0.29951741  0.58757624  0.25068112    -0.80600
O1141       O  0.29756489  0.91264979  0.24760843    -0.79300
O1142       O  0.24963805  0.95011015  0.33675969    -0.80800
O1143       O  0.24916218  0.54973716  0.33752560    -0.82700
O1144       O  0.24811859  0.91302249  0.29998506    -0.79500
O1145       O  0.25037548  0.58720633  0.30126983    -0.82200
O1146       O  0.16105644  0.95164599  0.25059073    -0.77900
O1147       O  0.33494434  0.94901775  0.24639124    -0.77900
O1148       O  0.33616768  0.55039620  0.25161851    -0.77600
O1149       O  0.16192837  0.55115272  0.24883531    -0.81100
O1150       O  0.20009204  0.99991551  0.33676899    -0.80500
O1151       O  0.30019126  0.00176149  0.33638115    -0.78800
Eu1152     Eu  0.18730827  0.00124312  0.24997410     2.39800
Eu1153     Eu  0.31119759  0.99978477  0.24929197     2.39600
Eu1154     Eu  0.24804723  0.93843158  0.24998320     2.38400
Eu1155     Eu  0.24943316  0.56251237  0.25081365     2.39900
Eu1156     Eu  0.24991057  0.00006004  0.31139930     2.39800
O1157       O  0.28008963  0.53113276  0.28151459    -0.93200
O1158       O  0.21777537  0.96984205  0.28092624    -0.92100
C1159       C  0.17192374  0.00056415  0.32840403     1.01900
C1160       C  0.32831067  0.00155520  0.32757474     1.00700
C1161       C  0.16935042  0.92335256  0.25117630     1.00000
C1162       C  0.17112205  0.57923042  0.24929988     1.02100
C1163       C  0.32751728  0.57860002  0.25128049     1.01000
C1164       C  0.32577611  0.92089839  0.24619232     0.99800
C1165       C  0.24898919  0.92190938  0.32806850     0.99900
C1166       C  0.24983647  0.57797618  0.32922477     1.02500
H1167       H  0.29316043  0.95573259  0.29305980     0.29900
O1168       O  0.28046212  0.96859069  0.28056157    -1.05400
H1169       H  0.20523673  0.54441084  0.29422904     0.31900
O1170       O  0.21790956  0.53164319  0.28146149    -1.08000
O1171       O  0.19999736  0.66229518  0.50148590    -0.80500
O1172       O  0.19933256  0.83670075  0.49604217    -0.82100
O1173       O  0.16331087  0.75165144  0.05052009    -0.79100
O1174       O  0.16218473  0.74802963  0.45082048    -0.77500
O1175       O  0.19879634  0.74736141  0.41374717    -0.79300
O1176       O  0.20054647  0.75151843  0.08680405    -0.80200
O1177       O  0.16250391  0.79961255  0.49952943    -0.81500
O1178       O  0.16332482  0.69941030  0.50050226    -0.81800
Eu1179     Eu  0.18815871  0.74959649  0.50058962     2.39200
O1180       O  0.21833911  0.78064080  0.46890326    -0.89300
O1181       O  0.21866953  0.72044481  0.03138664    -0.92900
C1182       C  0.17194337  0.67124295  0.50079800     1.01800
C1183       C  0.17125620  0.82774160  0.49712584     1.01600
C1184       C  0.17232680  0.75160055  0.07858248     1.01500
C1185       C  0.17069679  0.74709119  0.42260759     0.99400
H1186       H  0.20681053  0.79540178  0.04335415     0.29100
O1187       O  0.21931381  0.78241852  0.03064179    -1.01700
H1188       H  0.20634661  0.70509203  0.45738113     0.29200
O1189       O  0.21895246  0.71814201  0.46992671    -1.04200
O1190       O  0.30036980  0.83671385  0.49995363    -0.81500
O1191       O  0.29983335  0.66246926  0.50084546    -0.81000
O1192       O  0.25155679  0.80228133  0.08538750    -0.79400
O1193       O  0.24798771  0.79880902  0.41200122    -0.82800
O1194       O  0.25129056  0.69937727  0.41361089    -0.80600
O1195       O  0.25215790  0.70214555  0.08845129    -0.79300
O1196       O  0.33760080  0.75122090  0.04898538    -0.80800
O1197       O  0.33621597  0.74843108  0.44911165    -0.82700
O1198       O  0.30078463  0.75288797  0.08588072    -0.79500
O1199       O  0.29883957  0.74889407  0.41284433    -0.82200
O1200       O  0.25174899  0.83897758  0.04839615    -0.77900
O1201       O  0.24964737  0.66457424  0.05211001    -0.77900
O1202       O  0.25155793  0.66274282  0.45081802    -0.77600
O1203       O  0.25018709  0.83628566  0.44838882    -0.81100
O1204       O  0.33705976  0.79962688  0.50033923    -0.80500
O1205       O  0.33678098  0.69948707  0.50047695    -0.78800
Eu1206     Eu  0.24978541  0.81203661  0.49900185     2.39800
Eu1207     Eu  0.25010301  0.68770421  0.50118236     2.39600
Eu1208     Eu  0.25047242  0.75151189  0.06153089     2.38400
Eu1209     Eu  0.24922255  0.74930421  0.43842281     2.39900
Eu1210     Eu  0.31186355  0.74977372  0.49972520     2.39800
O1211       O  0.28041455  0.71861275  0.46945972    -0.93200
O1212       O  0.28131497  0.78183793  0.02991583    -0.92100
C1213       C  0.32845060  0.82778412  0.50060792     1.01900
C1214       C  0.32789591  0.67130702  0.50068873     1.00700
C1215       C  0.25203783  0.83040944  0.07648875     1.00000
C1216       C  0.24883598  0.82710870  0.42040868     1.02100
C1217       C  0.25207484  0.67138308  0.42265828     1.01000
C1218       C  0.25119807  0.67381567  0.08009522     0.99800
C1219       C  0.32886174  0.75249168  0.07707707     0.99900
C1220       C  0.32701757  0.74848132  0.42113385     1.02500
H1221       H  0.29379576  0.70714374  0.04397656     0.29900
O1222       O  0.28104934  0.71966544  0.03114468    -1.05400
H1223       H  0.29355460  0.79326220  0.45549239     0.31900
O1224       O  0.28089486  0.78067870  0.46844669    -1.08000
C1225       C  0.25098471  0.65005476  0.10424103    -0.00500
C1226       C  0.23054494  0.62543456  0.10141406    -0.12400
C1227       C  0.22903283  0.60242545  0.12357041     0.01700
C1228       C  0.24817365  0.60383314  0.14940467    -0.00600
C1229       C  0.26850255  0.62852749  0.15237571    -0.12400
C1230       C  0.27040495  0.65128406  0.12994330     0.01600
H1231       H  0.21542546  0.62431122  0.08188968     0.14600
H1232       H  0.28373700  0.62948435  0.17182328     0.14600
C1233       C  0.29396843  0.67421534  0.13295410     0.36200
C1234       C  0.20703632  0.57813274  0.11955510     0.36100
N1235       N  0.31332086  0.69205073  0.13564836    -0.44100
N1236       N  0.18937350  0.55873646  0.11611488    -0.44100
C1237       C  0.25210248  0.85433895  0.10049353    -0.00500
C1238       C  0.23938619  0.84713325  0.12901005    -0.12400
C1239       C  0.23818864  0.86868005  0.15251325     0.01700
C1240       C  0.24988100  0.89847269  0.14776831    -0.00600
C1241       C  0.26266109  0.90571439  0.11925654    -0.12400
C1242       C  0.26404586  0.88406099  0.09578182     0.01600
H1243       H  0.22983158  0.82456841  0.13292853     0.14600
H1244       H  0.27217207  0.92830741  0.11537850     0.14600
C1245       C  0.27897778  0.89285187  0.06773128     0.36200
C1246       C  0.22390383  0.85959209  0.18079440     0.36100
N1247       N  0.29110254  0.90013095  0.04543026    -0.44100
N1248       N  0.21252116  0.85220249  0.20344208    -0.44100
C1249       C  0.24921359  0.89793600  0.35195978    -0.00500
C1250       C  0.23144820  0.87149080  0.34772104    -0.12400
C1251       C  0.23058364  0.84836245  0.36979559     0.01700
C1252       C  0.24863615  0.85094170  0.39636341    -0.00600
C1253       C  0.26636191  0.87740138  0.40060062    -0.12400
C1254       C  0.26654203  0.90092461  0.37897631     0.01600
H1255       H  0.21740366  0.86931385  0.32749088     0.14600
H1256       H  0.28014911  0.87976435  0.42098698     0.14600
C1257       C  0.28498589  0.92766267  0.38508388     0.36200
C1258       C  0.20923774  0.82350174  0.36563244     0.36100
N1259       N  0.29953200  0.94918699  0.39018902    -0.44100
N1260       N  0.19174271  0.80391663  0.36237300    -0.44100
C1261       C  0.25032973  0.60149536  0.35353981    -0.00500
C1262       C  0.26753217  0.62820312  0.34893066    -0.12400
C1263       C  0.26929389  0.65082595  0.37146348     0.01700
C1264       C  0.25277220  0.64737217  0.39894099    -0.00600
C1265       C  0.23586364  0.62056994  0.40369854    -0.12400
C1266       C  0.23468895  0.59761521  0.38151988     0.01600
H1267       H  0.28037348  0.63103728  0.32796163     0.14600
H1268       H  0.22316839  0.61767164  0.42474982     0.14600
C1269       C  0.21680070  0.57067487  0.38814824     0.36200
C1270       C  0.28970630  0.67628815  0.36644687     0.36100
N1271       N  0.20260036  0.54911491  0.39392789    -0.44100
N1272       N  0.30646424  0.69631791  0.36223950    -0.44100
C1273       C  0.39670361  0.64834418  0.24778064    -0.00500
C1274       C  0.40105627  0.62229101  0.26574872    -0.12400
C1275       C  0.37877238  0.59952220  0.26757505     0.01700
C1276       C  0.35142518  0.60248110  0.25088270    -0.00600
C1277       C  0.34695288  0.62868227  0.23294468    -0.12400
C1278       C  0.36929976  0.65151482  0.23115946     0.01600
H1279       H  0.42163215  0.62014890  0.27918493     0.14600
H1280       H  0.32617123  0.63105070  0.21978609     0.14600
C1281       C  0.36392764  0.67728218  0.21128281     0.36200
C1282       C  0.38408555  0.57426856  0.28802053     0.36100
N1283       N  0.35956943  0.69785686  0.19531962    -0.44100
N1284       N  0.38863227  0.55427620  0.30463387    -0.44100
C1285       C  0.39645735  0.85172810  0.24745911    -0.00500
C1286       C  0.36623170  0.84350253  0.24044094    -0.12400
C1287       C  0.34296601  0.86537246  0.23910056     0.01700
C1288       C  0.34957475  0.89657339  0.24516596    -0.00600
C1289       C  0.37990376  0.90482955  0.25151197    -0.12400
C1290       C  0.40311889  0.88303191  0.25284716     0.01600
H1291       H  0.36062650  0.81979665  0.23566890     0.14600
H1292       H  0.38560809  0.92850560  0.25630571     0.14600
C1293       C  0.43324958  0.89377904  0.26084877     0.36200
C1294       C  0.31283311  0.85483335  0.23083750     0.36100
N1295       N  0.45737373  0.90238127  0.26728848    -0.44100
N1296       N  0.28878337  0.84618401  0.22418408    -0.44100
C1297       C  0.10177944  0.64903293  0.24664994    -0.00500
C1298       C  0.12796097  0.65320080  0.26458272    -0.12400
C1299       C  0.15058849  0.63071055  0.26601261     0.01700
C1300       C  0.14755601  0.60350995  0.24877878    -0.00600
C1301       C  0.12148091  0.59944548  0.23060612    -0.12400
C1302       C  0.09874901  0.62190500  0.22932671     0.01600
H1303       H  0.13032722  0.67373413  0.27832058     0.14600
H1304       H  0.11904847  0.57883164  0.21700804     0.14600
C1305       C  0.07308923  0.61707178  0.20925775     0.36200
C1306       C  0.17571972  0.63539532  0.28677153     0.36100
N1307       N  0.05244316  0.61349454  0.19323966    -0.44100
N1308       N  0.19571652  0.63906354  0.30357597    -0.44100
C1309       C  0.09935738  0.85400173  0.25369628    -0.00500
C1310       C  0.09633067  0.87929290  0.23425832    -0.12400
C1311       C  0.11893438  0.90194934  0.23289590     0.01700
C1312       C  0.14499974  0.89982227  0.25166614    -0.00600
C1313       C  0.14781212  0.87477835  0.27143764    -0.12400
C1314       C  0.12522311  0.85208595  0.27276054     0.01600
H1315       H  0.07672583  0.88082560  0.21929033     0.14600
H1316       H  0.16749956  0.87320208  0.28628711     0.14600
C1317       C  0.12846624  0.82791433  0.29490367     0.36200
C1318       C  0.11581810  0.92595066  0.21054353     0.36100
N1319       N  0.13102192  0.80873835  0.31285749    -0.44100
N1320       N  0.11347271  0.94497030  0.19239752    -0.44100
C1321       C  0.39837330  0.74967228  0.14657901    -0.00500
C1322       C  0.37133728  0.76607164  0.15163874    -0.12400
C1323       C  0.34881796  0.76800157  0.12914528     0.01700
C1324       C  0.35277650  0.75273219  0.10096748    -0.00600
C1325       C  0.37989251  0.73650314  0.09578844    -0.12400
C1326       C  0.40256765  0.73480493  0.11816107     0.01600
H1327       H  0.36807678  0.77812805  0.17303410     0.14600
H1328       H  0.38315325  0.72449250  0.07436360     0.14600
C1329       C  0.42930394  0.71671343  0.11152074     0.36200
C1330       C  0.32262494  0.78706089  0.13513995     0.36100
N1331       N  0.45060959  0.70216869  0.10590979    -0.44100
N1332       N  0.30176010  0.80250150  0.13992202    -0.44100
C1333       C  0.10135296  0.75388167  0.14766993    -0.00500
C1334       C  0.13113136  0.74505007  0.15542698    -0.12400
C1335       C  0.15456205  0.74428426  0.13371632     0.01700
C1336       C  0.14848950  0.75216943  0.10295979    -0.00600
C1337       C  0.11879490  0.76149051  0.09531501    -0.12400
C1338       C  0.09551699  0.76286098  0.11719130     0.01600
H1339       H  0.13621302  0.73823751  0.17862771     0.14600
H1340       H  0.11375106  0.76846866  0.07215559     0.14600
C1341       C  0.06640602  0.77496292  0.10769926     0.36200
C1342       C  0.18434579  0.73478719  0.14399688     0.36100
N1343       N  0.04324206  0.78491658  0.09998346    -0.44100
N1344       N  0.20816887  0.72733253  0.15247338    -0.44100
C1345       C  0.09964544  0.74795859  0.35382075    -0.00500
C1346       C  0.12784507  0.73400127  0.34764963    -0.12400
C1347       C  0.15090964  0.73265917  0.36975844     0.01700
C1348       C  0.14641157  0.74619747  0.39878382    -0.00600
C1349       C  0.11803786  0.75970430  0.40512169    -0.12400
C1350       C  0.09478136  0.76058643  0.38321766     0.01600
H1351       H  0.13174211  0.72351398  0.32555572     0.14600
H1352       H  0.11409222  0.77015211  0.42722531     0.14600
C1353       C  0.06657983  0.77547493  0.39150620     0.36200
C1354       C  0.17838230  0.71606659  0.36230501     0.36100
N1355       N  0.04401661  0.78731901  0.39839288    -0.44100
N1356       N  0.20028150  0.70259840  0.35631311    -0.44100
C1357       C  0.39690951  0.74514249  0.35182118    -0.00500
C1358       C  0.36958202  0.76083125  0.34629227    -0.12400
C1359       C  0.34647639  0.76212718  0.36827890     0.01700
C1360       C  0.35056432  0.74767550  0.39682791    -0.00600
C1361       C  0.37766261  0.73150644  0.40215819    -0.12400
C1362       C  0.40055512  0.72978675  0.37993421     0.01600
H1363       H  0.36641834  0.77267411  0.32482312     0.14600
H1364       H  0.38073092  0.71956235  0.42358795     0.14600
C1365       C  0.42672089  0.71082984  0.38615774     0.36200
C1366       C  0.31923404  0.77909595  0.36095177     0.36100
N1367       N  0.44742467  0.69534619  0.39133675    -0.44100
N1368       N  0.29742556  0.79257069  0.35477589    -0.44100
C1369       C  0.39775049  0.89836300  0.99700081    -0.00500
C1370       C  0.40358888  0.86980600  0.51367663    -0.12400
C1371       C  0.38120996  0.84697476  0.51512233     0.01700
C1372       C  0.35305947  0.85173128  0.99880671    -0.00600
C1373       C  0.34788480  0.87881585  0.98244194    -0.12400
C1374       C  0.37008056  0.90180013  0.98094576     0.01600
H1375       H  0.42527753  0.86606576  0.52491106     0.14600
H1376       H  0.32670765  0.88170398  0.97004179     0.14600
C1377       C  0.36454727  0.92768048  0.96130401     0.36200
C1378       C  0.38787485  0.81983452  0.53262738     0.36100
N1379       N  0.36016103  0.94817302  0.94524878    -0.44100
N1380       N  0.39336552  0.79828316  0.54686035    -0.44100
C1381       C  0.35154530  0.64767480  0.00034173    -0.00500
C1382       C  0.38010114  0.65440557  0.01334146    -0.12400
C1383       C  0.40370978  0.63288055  0.01332490     0.01700
C1384       C  0.39902542  0.60376107  0.99995509    -0.00600
C1385       C  0.37147486  0.59741115  0.48744738    -0.12400
C1386       C  0.34838467  0.61930313  0.48583887     0.01600
H1387       H  0.38396619  0.67654099  0.02389196     0.14600
H1388       H  0.36894712  0.57623358  0.47474817     0.14600
C1389       C  0.32231440  0.61271443  0.46681341     0.36200
C1390       C  0.43208472  0.64113767  0.02795067     0.36100
N1391       N  0.30156829  0.60722696  0.45146467    -0.44100
N1392       N  0.45485764  0.64772539  0.03956741    -0.44100
C1393       C  0.10181446  0.89827198  0.99893156    -0.00500
C1394       C  0.12491223  0.89925570  0.02097939    -0.12400
C1395       C  0.14784828  0.87704227  0.02154011     0.01700
C1396       C  0.14796214  0.85334420  0.99961536    -0.00600
C1397       C  0.12495133  0.85142686  0.51943087    -0.12400
C1398       C  0.10274018  0.87437239  0.52087050     0.01600
H1399       H  0.12473316  0.91717391  0.03813615     0.14600
H1400       H  0.12539515  0.83382231  0.53681797     0.14600
C1401       C  0.08181737  0.87451681  0.54631930     0.36200
C1402       C  0.17012319  0.87833224  0.04570094     0.36100
N1403       N  0.06528074  0.87483846  0.56689532    -0.44100
N1404       N  0.18774368  0.87949214  0.06527108    -0.44100
C1405       C  0.14675413  0.64939963  0.00156668    -0.00500
C1406       C  0.15308166  0.62124128  0.01556558    -0.12400
C1407       C  0.13143019  0.59769902  0.01625853     0.01700
C1408       C  0.10274684  0.60186422  0.00216787    -0.00600
C1409       C  0.09780532  0.62823930  0.48622162    -0.12400
C1410       C  0.11999208  0.65119071  0.48499664     0.01600
H1411       H  0.17492204  0.61773660  0.02658275     0.14600
H1412       H  0.07689968  0.63101524  0.47339831     0.14600
C1413       C  0.11351271  0.67781458  0.46670453     0.36200
C1414       C  0.13901870  0.57022357  0.03280836     0.36100
N1415       N  0.10765892  0.69897040  0.45204727    -0.44100
N1416       N  0.14540404  0.54843579  0.04628906    -0.44100
C1417       C  0.39673809  0.50178441  0.39850990    -0.00500
C1418       C  0.37029997  0.51942517  0.40287622    -0.12400
C1419       C  0.34707047  0.52003121  0.38087512     0.01700
C1420       C  0.35006439  0.50268859  0.35374770    -0.00600
C1421       C  0.37956924  0.98611639  0.34676771    -0.12400
C1422       C  0.40270244  0.98563099  0.36882908     0.01600
H1423       H  0.36792399  0.53309114  0.42341228     0.14600
H1424       H  0.38239871  0.97287294  0.32602029     0.14600
C1425       C  0.42885353  0.96638256  0.36330817     0.36200
C1426       C  0.32098751  0.53941693  0.38634726     0.36100
N1427       N  0.44969684  0.95078880  0.35894835    -0.44100
N1428       N  0.30015863  0.55498640  0.39088197    -0.44100
C1429       C  0.14725678  0.49921521  0.35263996    -0.00500
C1430       C  0.12080461  0.01620581  0.34718432    -0.12400
C1431       C  0.09770392  0.01717617  0.36920543     0.01700
C1432       C  0.10018697  0.50060404  0.39712295    -0.00600
C1433       C  0.12917897  0.48902731  0.40423026    -0.12400
C1434       C  0.15252048  0.48805740  0.38247360     0.01600
H1435       H  0.11750028  0.02806903  0.32574528     0.14600
H1436       H  0.13358491  0.48009969  0.42684922     0.14600
C1437       C  0.18117385  0.47453966  0.39143994     0.36200
C1438       C  0.07063854  0.03458783  0.36230005     0.36100
N1439       N  0.20405193  0.46372050  0.39883299    -0.44100
N1440       N  0.04911439  0.04862517  0.35639681    -0.44100
C1441       C  0.10140097  0.50224316  0.10263090    -0.00500
C1442       C  0.12794599  0.98621443  0.09753747    -0.12400
C1443       C  0.15092296  0.98513506  0.11959542     0.01700
C1444       C  0.14805880  0.50062815  0.14718293    -0.00600
C1445       C  0.12179176  0.51837027  0.15175557    -0.12400
C1446       C  0.09863517  0.51941230  0.12984500     0.01600
H1447       H  0.13129055  0.97429500  0.07607547     0.14600
H1448       H  0.11952545  0.53189097  0.17239977     0.14600
C1449       C  0.07291117  0.53919386  0.13552387     0.36200
C1450       C  0.17768628  0.96710439  0.11294742     0.36100
N1451       N  0.05241922  0.55514024  0.14027811    -0.44100
N1452       N  0.19896880  0.95247774  0.10748217    -0.44100
C1453       C  0.35157689  0.50179720  0.14809233    -0.00500
C1454       C  0.34741275  0.48393142  0.12174445    -0.12400
C1455       C  0.36958817  0.48305349  0.09868733     0.01700
C1456       C  0.39629831  0.50104744  0.10128858    -0.00600
C1457       C  0.39840718  0.01990531  0.12578144    -0.12400
C1458       C  0.37581910  0.02052941  0.14836224     0.01600
H1459       H  0.32717366  0.46977703  0.11960886     0.14600
H1460       H  0.41740653  0.03579131  0.12709289     0.14600
C1461       C  0.37832841  0.04312604  0.17227914     0.36200
C1462       C  0.36534293  0.46178923  0.07379291     0.36100
N1463       N  0.38042005  0.06137431  0.19130303    -0.44100
N1464       N  0.36204800  0.44440268  0.05413822    -0.44100
C1465       C  0.99809254  0.64471444  0.34924027    -0.00500
C1466       C  0.00670740  0.65351155  0.37887056    -0.12400
C1467       C  0.00613521  0.63292391  0.40320884     0.01700
C1468       C  0.99753952  0.60208728  0.39819819    -0.00600
C1469       C  0.49179786  0.59383316  0.36955484    -0.12400
C1470       C  0.49196887  0.61449162  0.34527313     0.01600
H1471       H  0.01382646  0.67687675  0.38329724     0.14600
H1472       H  0.48494718  0.57038841  0.36511404     0.14600
C1473       C  0.48245708  0.60295233  0.31591399     0.36200
C1474       C  0.01450066  0.64458449  0.43287219     0.36100
N1475       N  0.47478679  0.59287341  0.29274103    -0.44100
N1476       N  0.02088703  0.65436873  0.45655463    -0.44100
C1477       C  0.99924030  0.89680712  0.39880091    -0.00500
C1478       C  0.51149737  0.90322218  0.37003249    -0.12400
C1479       C  0.51200484  0.88111623  0.34690592     0.01700
C1480       C  0.00018122  0.85147979  0.35221855    -0.00600
C1481       C  0.98834491  0.84484882  0.38123309    -0.12400
C1482       C  0.98758954  0.86703408  0.40432010     0.01600
H1483       H  0.52179397  0.92539390  0.36578320     0.14600
H1484       H  0.97899032  0.82232573  0.38580647     0.14600
C1485       C  0.97353845  0.85866937  0.43293308     0.36200
C1486       C  0.52606574  0.88942411  0.31827812     0.36100
N1487       N  0.96218324  0.85179110  0.45575438    -0.44100
N1488       N  0.53715174  0.89637016  0.29534712    -0.44100
C1489       C  0.99546728  0.85269734  0.14835414    -0.00500
C1490       C  0.51404623  0.87821082  0.15272443    -0.12400
C1491       C  0.51581489  0.90111966  0.13055283     0.01700
C1492       C  0.99847374  0.89908054  0.10355460    -0.00600
C1493       C  0.98117726  0.87250650  0.09853815    -0.12400
C1494       C  0.97944423  0.84945000  0.12055278     0.01600
H1495       H  0.52654718  0.88103244  0.17387694     0.14600
H1496       H  0.96850882  0.86993508  0.07745528     0.14600
C1497       C  0.96005465  0.82345077  0.11425427     0.36200
C1498       C  0.53537509  0.92702122  0.13662607     0.36100
N1499       N  0.94427745  0.80292964  0.10872974    -0.44100
N1500       N  0.55138768  0.94743011  0.14185108    -0.44100
C1501       C  0.00218018  0.60399252  0.10087569    -0.00500
C1502       C  0.48428185  0.59944555  0.12629935    -0.12400
C1503       C  0.48338557  0.62119533  0.14959142     0.01700
C1504       C  0.99954790  0.64915720  0.14662644    -0.00600
C1505       C  0.01760657  0.65362781  0.12059596    -0.12400
C1506       C  0.01955566  0.63109809  0.09804735     0.01600
H1507       H  0.47079166  0.57872635  0.12850150     0.14600
H1508       H  0.03118224  0.67429407  0.11844304     0.14600
C1509       C  0.04131993  0.63549566  0.07370065     0.36200
C1510       C  0.46455591  0.61482513  0.17586963     0.36100
N1511       N  0.05928209  0.63926353  0.05472184    -0.44100
N1512       N  0.44961918  0.60943241  0.19695982    -0.44100
O1513       O  0.00085910  0.54974997  0.58758586    -0.80500
O1514       O  0.99862324  0.55013052  0.91361645    -0.82100
O1515       O  0.05030242  0.58661633  0.50147119    -0.79100
O1516       O  0.45034893  0.58803698  0.50412110    -0.77500
O1517       O  0.41346816  0.55101192  0.50206538    -0.79300
O1518       O  0.08701772  0.54955534  0.50261976    -0.80200
O1519       O  0.99898027  0.58710248  0.95032871    -0.81500
O1520       O  0.00206107  0.58676683  0.55084006    -0.81800
Eu1521     Eu  0.99963198  0.56208017  0.50067128     2.39200
O1522       O  0.46910931  0.53154900  0.96864117    -0.89300
O1523       O  0.03028885  0.53082845  0.53121800    -0.92900
C1524       C  0.00217175  0.57787923  0.57886015     1.01800
C1525       C  0.99866539  0.57840560  0.92225449     1.01600
C1526       C  0.07836254  0.57769730  0.50268698     1.01500
C1527       C  0.42226210  0.57916755  0.50373833     0.99400
H1528       H  0.04362970  0.54384473  0.95636131     0.29100
O1529       O  0.03090825  0.53117526  0.96917074    -1.01700
H1530       H  0.45605855  0.54384315  0.54501347     0.29200
O1531       O  0.46858566  0.53120940  0.53198602    -1.04200
O1532       O  0.99985965  0.94830504  0.91493082    -0.81500
O1533       O  0.00004132  0.95152050  0.58802850    -0.81000
O1534       O  0.08544435  0.49978707  0.94963279    -0.79400
O1535       O  0.41309323  0.50201593  0.94910022    -0.82800
O1536       O  0.41205456  0.49955631  0.54978902    -0.80600
O1537       O  0.08599164  0.50140265  0.55075041    -0.79300
O1538       O  0.05050569  0.91313456  0.50028478    -0.80800
O1539       O  0.45018781  0.91254667  0.50019064    -0.82700
O1540       O  0.08770747  0.94992845  0.49832677    -0.79500
O1541       O  0.41379933  0.94982940  0.49868151    -0.82200
O1542       O  0.04840751  0.49979914  0.91302069    -0.77900
O1543       O  0.04912705  0.50181405  0.58761161    -0.77900
O1544       O  0.44858608  0.49897382  0.58686588    -0.77600
O1545       O  0.45012801  0.50006767  0.91245174    -0.81100
O1546       O  0.99956647  0.91166424  0.95205765    -0.80500
O1547       O  0.00005663  0.91419682  0.55144746    -0.78800
Eu1548     Eu  0.99910262  0.50001116  0.93899653     2.39800
Eu1549     Eu  0.99943867  0.49988508  0.56220148     2.39600
Eu1550     Eu  0.06122824  0.49997434  0.50029921     2.38400
Eu1551     Eu  0.43775927  0.50053090  0.50033393     2.39900
Eu1552     Eu  0.00019217  0.93819377  0.50061983     2.39800
O1553       O  0.46896049  0.96931890  0.53096422    -0.93200
O1554       O  0.03057345  0.96878859  0.96955406    -0.92100
C1555       C  0.99948971  0.92016583  0.92396444     1.01900
C1556       C  0.00024002  0.92333053  0.57951141     1.00700
C1557       C  0.07650677  0.49998044  0.92155298     1.00000
C1558       C  0.42199195  0.50104833  0.92100419     1.02100
C1559       C  0.42051309  0.49892518  0.57790140     1.01000
C1560       C  0.07721226  0.50220901  0.57889522     0.99800
C1561       C  0.07865656  0.92183597  0.49910595     0.99900
C1562       C  0.42220218  0.92156739  0.49914249     0.99300
H1563       H  0.04376353  0.95664673  0.54424735     0.29900
O1564       O  0.03106148  0.96931337  0.53151839    -1.05400
H1565       H  0.45602255  0.95681930  0.95605189     0.31900
O1566       O  0.46861361  0.96946733  0.96901488    -1.08000
O1567       O  0.99954588  0.70000261  0.66275756    -0.80500
O1568       O  0.99961388  0.69866103  0.83535673    -0.82100
O1569       O  0.04916885  0.66338431  0.74883448    -0.79100
O1570       O  0.44814185  0.66411258  0.74906073    -0.77500
O1571       O  0.41157254  0.70136834  0.74788898    -0.79300
O1572       O  0.08682100  0.69959181  0.74990801    -0.80200
O1573       O  0.99838675  0.66209345  0.79822667    -0.81500
O1574       O  0.99922175  0.66328611  0.69977781    -0.81800
Eu1575     Eu  0.99908105  0.68860620  0.74934173     2.39200
O1576       O  0.46867610  0.71928169  0.78080758    -0.89300
O1577       O  0.03039564  0.71911536  0.71848490    -0.92900
C1578       C  0.99930764  0.67185458  0.67171912     1.01800
C1579       C  0.99881497  0.67046336  0.82637662     1.01600
C1580       C  0.07745513  0.67161177  0.74919558     1.01500
C1581       C  0.42010736  0.67314746  0.74794291     0.99400
H1582       H  0.04315260  0.70576344  0.79343596     0.29100
O1583       O  0.03056546  0.71864860  0.78081203    -1.01700
H1584       H  0.45559361  0.70686693  0.70599587     0.29200
O1585       O  0.46838832  0.71933430  0.71893395    -1.04200
O1586       O  0.99856785  0.79996815  0.83716863    -0.81500
O1587       O  0.99887751  0.80060613  0.66298183    -0.81000
O1588       O  0.08678874  0.75026234  0.79994751    -0.79400
O1589       O  0.41354992  0.74834105  0.80049963    -0.82800
O1590       O  0.41261368  0.75225069  0.70021145    -0.80600
O1591       O  0.08533350  0.74824553  0.69880117    -0.79300
O1592       O  0.05185181  0.83585832  0.75163999    -0.80800
O1593       O  0.45173388  0.83810925  0.74974035    -0.82700
O1594       O  0.08835018  0.79861799  0.75139345    -0.79500
O1595       O  0.41420887  0.80171194  0.74967188    -0.82200
O1596       O  0.04998159  0.75229428  0.83696075    -0.77900
O1597       O  0.04867525  0.74951312  0.66203353    -0.77900
O1598       O  0.44990752  0.75156706  0.66380114    -0.77600
O1599       O  0.45012490  0.74645407  0.83764082    -0.81100
O1600       O  0.00035673  0.83697058  0.80043343    -0.80500
O1601       O  0.00070886  0.83742059  0.70004437    -0.78800
Eu1602     Eu  0.99972154  0.74982169  0.81178283     2.39800
Eu1603     Eu  0.99955987  0.75046874  0.68795114     2.39600
Eu1604     Eu  0.06167778  0.74949367  0.74976546     2.38400
Eu1605     Eu  0.43806630  0.75082977  0.75015509     2.39900
Eu1606     Eu  0.00096791  0.81212658  0.75012338     2.39800
O1607       O  0.46955573  0.78156417  0.71959314    -0.93200
O1608       O  0.03109464  0.78056704  0.78093540    -0.92100
C1609       C  0.99945526  0.82817716  0.82850599     1.01900
C1610       C  0.99939929  0.82874209  0.67189672     1.00700
C1611       C  0.07809358  0.75186997  0.82806156     1.00000
C1612       C  0.42211742  0.74651051  0.82858899     1.02100
C1613       C  0.42173474  0.75207218  0.67219429     1.01000
C1614       C  0.07668341  0.74843553  0.67063164     0.99800
C1615       C  0.07987192  0.82680563  0.75210700     0.99900
C1616       C  0.42349449  0.82978212  0.74944352     1.02500
H1617       H  0.04436861  0.79380973  0.70603577     0.29900
O1618       O  0.03148341  0.78113466  0.71868330    -1.05400
H1619       H  0.45682745  0.79401459  0.79437143     0.31900
O1620       O  0.46944084  0.78123998  0.78156591    -1.08000
O1621       O  0.33660375  0.99942428  0.69964805    -0.80500
O1622       O  0.16410449  0.99944566  0.69904953    -0.82100
O1623       O  0.24989774  0.94909728  0.66363130    -0.79100
O1624       O  0.24986104  0.55022199  0.66503231    -0.77500
O1625       O  0.24928329  0.58757977  0.70154957    -0.79300
O1626       O  0.24864416  0.91202673  0.70034697    -0.80200
O1627       O  0.20100309  0.99889765  0.66219323    -0.81500
O1628       O  0.30002499  0.99887596  0.66270208    -0.81800
Eu1629     Eu  0.25014448  0.99951827  0.68825751     2.39200
O1630       O  0.21833058  0.53066859  0.71997185    -0.89300
O1631       O  0.28110948  0.96871318  0.71897823    -0.92900
C1632       C  0.32809386  0.99916056  0.67151957     1.01800
C1633       C  0.17293634  0.99898703  0.67088032     1.01600
C1634       C  0.24888441  0.92093118  0.67232064     1.01500
C1635       C  0.24968958  0.57852602  0.67352430     0.99400
H1636       H  0.20635838  0.95564054  0.70662355     0.29100
O1637       O  0.21913415  0.96847589  0.71922329    -1.01700
H1638       H  0.29268304  0.54364532  0.70732094     0.29200
O1639       O  0.28000642  0.53089155  0.72008994    -1.04200
O1640       O  0.16368475  0.99959820  0.80081619    -0.81500
O1641       O  0.33699682  0.00215942  0.79973147    -0.81000
O1642       O  0.19989561  0.91309039  0.75158515    -0.79400
O1643       O  0.19883466  0.58658676  0.75079337    -0.82800
O1644       O  0.29894254  0.58774930  0.75005768    -0.80600
O1645       O  0.30059814  0.91291767  0.74724990    -0.79300
O1646       O  0.25181899  0.94991750  0.83677965    -0.80800
O1647       O  0.24803339  0.54903439  0.83843467    -0.82700
O1648       O  0.25087662  0.91269279  0.80005528    -0.79500
O1649       O  0.24855072  0.58622736  0.80195095    -0.82200
O1650       O  0.16299369  0.94994984  0.75117766    -0.77900
O1651       O  0.33711963  0.95033031  0.74807962    -0.77900
O1652       O  0.33576093  0.55072858  0.75029053    -0.77600
O1653       O  0.16183391  0.54961662  0.75000217    -0.81100
O1654       O  0.20081121  0.99892895  0.83732297    -0.80500
O1655       O  0.30021259  0.00394594  0.83670854    -0.78800
Eu1656     Eu  0.18817532  0.99963676  0.75006033     2.39800
Eu1657     Eu  0.31167873  0.00024448  0.74970206     2.39600
Eu1658     Eu  0.25030484  0.93772231  0.75008438     2.38400
Eu1659     Eu  0.24906616  0.56190517  0.75118511     2.39900
Eu1660     Eu  0.25037678  0.99992134  0.81153915     2.39800
O1661       O  0.28038179  0.53127241  0.78196784    -0.93200
O1662       O  0.21925640  0.96874388  0.78093215    -0.92100
C1663       C  0.17266824  0.99903643  0.82888510     1.01900
C1664       C  0.32826456  0.00402100  0.82781779     1.00700
C1665       C  0.17180016  0.92187578  0.75148088     1.00000
C1666       C  0.17071773  0.57781666  0.75049806     1.02100
C1667       C  0.32701961  0.57891016  0.74998885     1.01000
C1668       C  0.32862957  0.92205482  0.74690547     0.99800
C1669       C  0.25170216  0.92170681  0.82807380     0.99900
C1670       C  0.24781198  0.57720098  0.82999376     1.02500
H1671       H  0.29467220  0.95619415  0.79364615     0.29900
O1672       O  0.28164330  0.96867721  0.78104498    -1.05400
H1673       H  0.20508439  0.54332464  0.79448800     0.31900
O1674       O  0.21791586  0.53069569  0.78174341    -1.08000
O1675       O  0.19880592  0.66424721  0.00188551    -0.80500
O1676       O  0.19992127  0.83803668  0.99985898    -0.82100
O1677       O  0.16421220  0.74847906  0.55121218    -0.79100
O1678       O  0.16336745  0.75156405  0.94908797    -0.77500
O1679       O  0.20038252  0.74973660  0.91232628    -0.79300
O1680       O  0.20121121  0.74826629  0.58766137    -0.80200
O1681       O  0.16259555  0.80130806  0.99884954    -0.81500
O1682       O  0.16236250  0.70152991  0.00076129    -0.81800
Eu1683     Eu  0.18792262  0.75134444  0.99993843     2.39200
O1684       O  0.21891299  0.78185378  0.96849413    -0.89300
O1685       O  0.21920609  0.71900560  0.53190743    -0.92900
C1686       C  0.17079914  0.67330445  0.00135952     1.01800
C1687       C  0.17171249  0.82937803  0.99942431     1.01600
C1688       C  0.17307582  0.74801243  0.57927338     1.01500
C1689       C  0.17228130  0.75059333  0.92096257     0.99400
H1690       H  0.20636597  0.79411720  0.54353120     0.29100
O1691       O  0.21917826  0.78131940  0.53094301    -1.01700
H1692       H  0.20576019  0.70661874  0.95719785     0.29200
O1693       O  0.21863748  0.71940277  0.96974326    -1.04200
O1694       O  0.30092025  0.83719890  0.99894303    -0.81500
O1695       O  0.29938363  0.66312467  0.00078925    -0.81000
O1696       O  0.24965869  0.80128129  0.58605300    -0.79400
O1697       O  0.24982383  0.79985609  0.91287053    -0.82800
O1698       O  0.24876658  0.69925956  0.91466782    -0.80600
O1699       O  0.25310014  0.70110546  0.58835535    -0.79300
O1700       O  0.33740740  0.75180411  0.54987522    -0.80800
O1701       O  0.33674251  0.74776536  0.94896071    -0.82700
O1702       O  0.30063464  0.75363917  0.58678312    -0.79500
O1703       O  0.29941159  0.74855371  0.91265273    -0.82200
O1704       O  0.24949830  0.83792734  0.54882615    -0.77900
O1705       O  0.25179448  0.66361367  0.55201779    -0.77900
O1706       O  0.24878537  0.66233370  0.95147431    -0.77600
O1707       O  0.25057194  0.83760650  0.94903231    -0.81100
O1708       O  0.33732262  0.79981185  0.99925777    -0.80500
O1709       O  0.33660428  0.69977858  0.00031050    -0.78800
Eu1710     Eu  0.25033701  0.81281459  0.99907582     2.39800
Eu1711     Eu  0.24936077  0.68849932  0.00112552     2.39600
Eu1712     Eu  0.25063870  0.75063364  0.56189800     2.38400
Eu1713     Eu  0.24973038  0.74990110  0.93838102     2.39900
Eu1714     Eu  0.31185886  0.74997585  0.99932394     2.39800
O1715       O  0.28040942  0.71865625  0.96920770    -0.93200
O1716       O  0.28086228  0.78130907  0.53002732    -0.92100
C1717       C  0.32890389  0.82804126  0.99919663     1.01900
C1718       C  0.32759079  0.67166087  0.00046038     1.00700
C1719       C  0.24957719  0.82934833  0.57698789     1.00000
C1720       C  0.25015897  0.82820274  0.92113898     1.02100
C1721       C  0.24877555  0.67112272  0.92337726     1.01000
C1722       C  0.25306884  0.67275717  0.58005965     0.99800
C1723       C  0.32871618  0.75352003  0.57802211     0.99900
C1724       C  0.32758939  0.74780264  0.92097860     1.02500
H1725       H  0.29451021  0.70674590  0.54428490     0.29900
O1726       O  0.28152997  0.71906636  0.53148687    -1.05400
H1727       H  0.29403824  0.79363597  0.95536450     0.31900
O1728       O  0.28124316  0.78124002  0.96836417    -1.08000
C1729       C  0.25363383  0.64882764  0.60424953    -0.00500
C1730       C  0.24030695  0.62025716  0.59783978    -0.12400
C1731       C  0.23844185  0.59731113  0.61996060     0.01700
C1732       C  0.25057927  0.60236669  0.64939469    -0.00600
C1733       C  0.26431050  0.63075679  0.65579861    -0.12400
C1734       C  0.26606282  0.65383230  0.63367562     0.01600
H1735       H  0.23031086  0.61605540  0.57561792     0.14600
H1736       H  0.27418820  0.63484088  0.67810536     0.14600
C1737       C  0.28167195  0.68183716  0.64176534     0.36200
C1738       C  0.22241938  0.56948247  0.61212015     0.36100
N1739       N  0.29431172  0.70408525  0.64859582    -0.44100
N1740       N  0.20945620  0.54725510  0.60588508    -0.44100
C1741       C  0.24925207  0.85329581  0.60086396    -0.00500
C1742       C  0.23154994  0.84855059  0.62715928    -0.12400
C1743       C  0.23087073  0.87022575  0.65068628     0.01700
C1744       C  0.24834743  0.89730013  0.64815698    -0.00600
C1745       C  0.26583388  0.90214064  0.62175891    -0.12400
C1746       C  0.26656313  0.88044726  0.59829611     0.01600
H1747       H  0.21785035  0.82797503  0.62915017     0.14600
H1748       H  0.27955337  0.92272144  0.61971523     0.14600
C1749       C  0.28647065  0.88604493  0.57264659     0.36200
C1750       C  0.21114012  0.86458430  0.67649163     0.36100
N1751       N  0.30257922  0.89066219  0.55224473    -0.44100
N1752       N  0.19523951  0.85999266  0.69706928    -0.44100
C1753       C  0.25217056  0.89783683  0.85189369    -0.00500
C1754       C  0.23485123  0.87117044  0.84743490    -0.12400
C1755       C  0.23397416  0.84814981  0.86950911     0.01700
C1756       C  0.25048503  0.85173546  0.89693780    -0.00600
C1757       C  0.26805718  0.87830516  0.90127619    -0.12400
C1758       C  0.26940645  0.90105655  0.87889737     0.01600
H1759       H  0.22156526  0.86846933  0.82675607     0.14600
H1760       H  0.28146633  0.88092789  0.92188427     0.14600
C1761       C  0.29013997  0.92641191  0.88334837     0.36200
C1762       C  0.21519405  0.82159214  0.86369243     0.36100
N1763       N  0.30702333  0.94652279  0.88668238    -0.44100
N1764       N  0.20022128  0.80029875  0.85888778    -0.44100
C1765       C  0.24712241  0.60093236  0.85415893    -0.00500
C1766       C  0.26114025  0.62916483  0.84827585    -0.12400
C1767       C  0.26201715  0.65219371  0.87035313     0.01700
C1768       C  0.24858190  0.64727676  0.89929862    -0.00600
C1769       C  0.23433926  0.61908730  0.90518821    -0.12400
C1770       C  0.23329557  0.59606455  0.88296405     0.01600
H1771       H  0.27200636  0.63315468  0.82640439     0.14600
H1772       H  0.22349329  0.61517572  0.92708564     0.14600
C1773       C  0.21693964  0.56824840  0.89013110     0.36200
C1774       C  0.27775214  0.68022004  0.86272753     0.36100
N1775       N  0.20377310  0.54604723  0.89598881    -0.44100
N1776       N  0.29028122  0.70267442  0.85647666    -0.44100
C1777       C  0.39609693  0.64923980  0.74738178    -0.00500
C1778       C  0.39977351  0.62353180  0.76603841    -0.12400
C1779       C  0.37774444  0.60040363  0.76708657     0.01700
C1780       C  0.35100382  0.60283265  0.74936057    -0.00600
C1781       C  0.34728204  0.62850593  0.73048172    -0.12400
C1782       C  0.36967242  0.65146794  0.72907969     0.01600
H1783       H  0.41972564  0.62182571  0.78043509     0.14600
H1784       H  0.32712972  0.63030469  0.71629171     0.14600
C1785       C  0.36566310  0.67613290  0.70759055     0.36200
C1786       C  0.38276129  0.57509189  0.78755046     0.36100
N1787       N  0.36244588  0.69567232  0.69013284    -0.44100
N1788       N  0.38703937  0.55491173  0.80401010    -0.44100
C1789       C  0.39988433  0.85405203  0.74834527    -0.00500
C1790       C  0.37262829  0.84819393  0.73250831    -0.12400
C1791       C  0.34948596  0.87017876  0.73087840     0.01700
C1792       C  0.35302687  0.89856029  0.74600475    -0.00600
C1793       C  0.38055554  0.90467376  0.76120222    -0.12400
C1794       C  0.40388354  0.88292610  0.76243730     0.01600
H1795       H  0.36959459  0.82651369  0.72080575     0.14600
H1796       H  0.38365656  0.92637186  0.77285243     0.14600
C1797       C  0.43105801  0.89067033  0.77938349     0.36200
C1798       C  0.32315468  0.86352730  0.71223670     0.36100
N1799       N  0.45273188  0.89717412  0.79296903    -0.44100
N1800       N  0.30224943  0.85822057  0.69703651    -0.44100
C1801       C  0.10094648  0.64726496  0.74922284    -0.00500
C1802       C  0.12792467  0.65203991  0.76578948    -0.12400
C1803       C  0.15058034  0.62957690  0.76704000     0.01700
C1804       C  0.14692671  0.60189327  0.75067367    -0.00600
C1805       C  0.11989937  0.59706218  0.73419291    -0.12400
C1806       C  0.09692375  0.61926376  0.73351194     0.01600
H1807       H  0.13097396  0.67309946  0.77857175     0.14600
H1808       H  0.11676501  0.57590636  0.72160319     0.14600
C1809       C  0.06967707  0.61280187  0.71617415     0.36200
C1810       C  0.17642056  0.63488896  0.78676113     0.36100
N1811       N  0.04766450  0.60762639  0.70258234    -0.44100
N1812       N  0.19693182  0.63911942  0.80279772    -0.44100
C1813       C  0.10381011  0.85073363  0.75269092    -0.00500
C1814       C  0.09790138  0.87847046  0.73777576    -0.12400
C1815       C  0.11963717  0.90183433  0.73688079     0.01700
C1816       C  0.14797117  0.89791928  0.75168677    -0.00600
C1817       C  0.15391305  0.87025266  0.76669484    -0.12400
C1818       C  0.13231738  0.84667263  0.76722421     0.01600
H1819       H  0.07639561  0.88168162  0.72603144     0.14600
H1820       H  0.17553200  0.86705026  0.77823687     0.14600
C1821       C  0.14010454  0.81904578  0.78342905     0.36200
C1822       C  0.11265826  0.92879574  0.71922102     0.36100
N1823       N  0.14698368  0.79712488  0.79644557    -0.44100
N1824       N  0.10695043  0.95024404  0.70491692    -0.44100
C1825       C  0.39827413  0.75250081  0.64782136    -0.00500
C1826       C  0.37100396  0.76850833  0.65276354    -0.12400
C1827       C  0.34837907  0.76980174  0.63026962     0.01700
C1828       C  0.35265991  0.75454503  0.60204156    -0.00600
C1829       C  0.38011757  0.73880233  0.59704021    -0.12400
C1830       C  0.40269730  0.73748912  0.61954931     0.01600
H1831       H  0.36750153  0.78048044  0.67417074     0.14600
H1832       H  0.38365403  0.72668883  0.57572465     0.14600
C1833       C  0.42957864  0.71939760  0.61347806     0.36200
C1834       C  0.32153509  0.78781422  0.63663241     0.36100
N1835       N  0.45119351  0.70496141  0.60887663    -0.44100
N1836       N  0.30017247  0.80235229  0.64202813    -0.44100
C1837       C  0.10085431  0.74761853  0.64674334    -0.00500
C1838       C  0.13119004  0.75289096  0.65565034    -0.12400
C1839       C  0.15499133  0.75339406  0.63444898     0.01700
C1840       C  0.14900135  0.74730355  0.60327733    -0.00600
C1841       C  0.11872790  0.74147569  0.59442942    -0.12400
C1842       C  0.09473082  0.74227458  0.61542768     0.01600
H1843       H  0.13643780  0.75769650  0.67933721     0.14600
H1844       H  0.11346318  0.73696355  0.57068885     0.14600
C1845       C  0.06424494  0.73859670  0.60347382     0.36200
C1846       C  0.18480704  0.76192016  0.64558420     0.36100
N1847       N  0.03997062  0.73620232  0.59341696    -0.44100
N1848       N  0.20848024  0.76906801  0.65482148    -0.44100
C1849       C  0.10227234  0.75251824  0.85175241    -0.00500
C1850       C  0.12755149  0.73311732  0.84840722    -0.12400
C1851       C  0.15055414  0.73209064  0.87054938     0.01700
C1852       C  0.14854613  0.75078186  0.89684167    -0.00600
C1853       C  0.12351839  0.77051428  0.89996449    -0.12400
C1854       C  0.10066296  0.77175385  0.87766062     0.01600
H1855       H  0.12907463  0.71823845  0.82863766     0.14600
H1856       H  0.12209173  0.78546784  0.91968024     0.14600
C1857       C  0.07665688  0.79399535  0.88134446     0.36200
C1858       C  0.17532836  0.71081195  0.86616764     0.36100
N1859       N  0.05768549  0.81207759  0.88450268    -0.44100
N1860       N  0.19512409  0.69373277  0.86252376    -0.44100
C1861       C  0.39778613  0.74536138  0.85201959    -0.00500
C1862       C  0.37171173  0.76336160  0.84776911    -0.12400
C1863       C  0.34829912  0.76391090  0.86944078     0.01700
C1864       C  0.35115614  0.74692568  0.89669848    -0.00600
C1865       C  0.37694834  0.72833817  0.90065362    -0.12400
C1866       C  0.39976193  0.72679762  0.87825917     0.01600
H1867       H  0.36966677  0.77728592  0.82743132     0.14600
H1868       H  0.37878654  0.71418682  0.92085266     0.14600
C1869       C  0.42341737  0.70414853  0.88152816     0.36200
C1870       C  0.32185972  0.78242437  0.86303608     0.36100
N1871       N  0.44183936  0.68542343  0.88396396    -0.44100
N1872       N  0.30062136  0.79701028  0.85742831    -0.44100
C1873       C  0.39802567  0.89773035  0.49891660    -0.00500
C1874       C  0.40313235  0.87109531  0.01292833    -0.12400
C1875       C  0.38132760  0.84777409  0.01377390     0.01700
C1876       C  0.35257867  0.85160216  0.50101746    -0.00600
C1877       C  0.34703287  0.87947802  0.48624811    -0.12400
C1878       C  0.36932227  0.90237687  0.48497766     0.01600
H1879       H  0.42437965  0.86810462  0.02519326     0.14600
H1880       H  0.32532788  0.88321949  0.47504738     0.14600
C1881       C  0.36227624  0.92984761  0.46819002     0.36200
C1882       C  0.38855877  0.82050885  0.03084008     0.36100
N1883       N  0.35645185  0.95178534  0.45469802    -0.44100
N1884       N  0.39481378  0.79874602  0.04442179    -0.44100
C1885       C  0.35169181  0.64742230  0.50143887    -0.00500
C1886       C  0.37813339  0.65269149  0.51871246    -0.12400
C1887       C  0.40113308  0.63061654  0.52057733     0.01700
C1888       C  0.39814523  0.60280458  0.50431177    -0.00600
C1889       C  0.37049838  0.59705559  0.98701097    -0.12400
C1890       C  0.34690309  0.61850501  0.98708860     0.01600
H1891       H  0.38053405  0.67389138  0.53140326     0.14600
H1892       H  0.36661317  0.57493557  0.97643130     0.14600
C1893       C  0.31857327  0.60997470  0.97259304     0.36200
C1894       C  0.42656749  0.63656345  0.54064300     0.36100
N1895       N  0.29592817  0.60288502  0.96103223    -0.44100
N1896       N  0.44661826  0.64154767  0.55705505    -0.44100
C1897       C  0.10228572  0.89774587  0.49874458    -0.00500
C1898       C  0.12455296  0.89787804  0.47571228    -0.12400
C1899       C  0.14684515  0.87492693  0.47429382     0.01700
C1900       C  0.14730879  0.85155758  0.49650894    -0.00600
C1901       C  0.12489200  0.85247082  0.97743041    -0.12400
C1902       C  0.10214448  0.87494666  0.97668526     0.01600
H1903       H  0.12413670  0.91560310  0.45844063     0.14600
H1904       H  0.12511431  0.83464274  0.96019437     0.14600
C1905       C  0.08065239  0.87491638  0.95177572     0.36200
C1906       C  0.16793005  0.87502098  0.44898141     0.36100
N1907       N  0.06366542  0.87536392  0.93163189    -0.44100
N1908       N  0.18448690  0.87515125  0.42842069    -0.44100
C1909       C  0.14785475  0.64747196  0.50078085    -0.00500
C1910       C  0.15245357  0.62076218  0.51785142    -0.12400
C1911       C  0.12988294  0.59814634  0.51967023     0.01700
C1912       C  0.10237602  0.60154642  0.50323370    -0.00600
C1913       C  0.09638536  0.63008172  0.98836500    -0.12400
C1914       C  0.11781186  0.65378867  0.98806170     0.01600
H1915       H  0.17337012  0.61800879  0.53072532     0.14600
H1916       H  0.07459166  0.63357354  0.97736377     0.14600
C1917       C  0.10947932  0.68187533  0.97291225     0.36200
C1918       C  0.13490714  0.57288443  0.54019372     0.36100
N1919       N  0.10247218  0.70428896  0.96082386    -0.44100
N1920       N  0.13925879  0.55309436  0.55709902    -0.44100
C1921       C  0.39810075  0.50118109  0.89697508    -0.00500
C1922       C  0.37071257  0.51691287  0.90253056    -0.12400
C1923       C  0.34738977  0.51761583  0.88074387     0.01700
C1924       C  0.35107676  0.50205298  0.85269621    -0.00600
C1925       C  0.37753487  0.98593048  0.84858337    -0.12400
C1926       C  0.40006091  0.98474827  0.87111154     0.01600
H1927       H  0.36764205  0.52912811  0.92386221     0.14600
H1928       H  0.37926092  0.97094260  0.82891261     0.14600
C1929       C  0.42429740  0.96277328  0.86741646     0.36200
C1930       C  0.32048926  0.53545814  0.88737914     0.36100
N1931       N  0.44354738  0.94497375  0.86436565    -0.44100
N1932       N  0.29896565  0.54979869  0.89265590    -0.44100
C1933       C  0.14710176  0.49913987  0.85282094    -0.00500
C1934       C  0.12168444  0.01508611  0.84789022    -0.12400
C1935       C  0.09867033  0.01631965  0.87003774     0.01700
C1936       C  0.10032420  0.50023796  0.89748396    -0.00600
C1937       C  0.12846062  0.48631865  0.90359964    -0.12400
C1938       C  0.15173897  0.48569660  0.88177481     0.01600
H1939       H  0.11877027  0.02761062  0.82677082     0.14600
H1940       H  0.13224212  0.47550434  0.92550340     0.14600
C1941       C  0.17978440  0.47041913  0.88970583     0.36200
C1942       C  0.07303391  0.03618339  0.86452496     0.36100
N1943       N  0.20227392  0.45831010  0.89623532    -0.44100
N1944       N  0.05285215  0.05255284  0.86006508    -0.44100
C1945       C  0.10118574  0.50284267  0.60284704    -0.00500
C1946       C  0.12975216  0.98586511  0.59641461    -0.12400
C1947       C  0.15298794  0.98455863  0.61825242     0.01700
C1948       C  0.14765174  0.50091748  0.64785228    -0.00600
C1949       C  0.11998641  0.51608091  0.65355749    -0.12400
C1950       C  0.09697231  0.51736638  0.63142982     0.01600
H1951       H  0.13294447  0.97425595  0.57476465     0.14600
H1952       H  0.11647171  0.52745433  0.67528069     0.14600
C1953       C  0.06983530  0.53469903  0.63844528     0.36200
C1954       C  0.17987862  0.96694415  0.61091912     0.36100
N1955       N  0.04820966  0.54868243  0.64424396    -0.44100
N1956       N  0.20119553  0.95265592  0.60470297    -0.44100
C1957       C  0.35140719  0.50028520  0.64832363    -0.00500
C1958       C  0.34509448  0.48676405  0.61989540    -0.12400
C1959       C  0.36709178  0.48586657  0.59669713     0.01700
C1960       C  0.39633134  0.49873985  0.60167868    -0.00600
C1961       C  0.40323449  0.01179471  0.62931930    -0.12400
C1962       C  0.38150230  0.01194036  0.65268140     0.01600
H1963       H  0.32298304  0.47635982  0.61587253     0.14600
H1964       H  0.42541939  0.02195415  0.63355736     0.14600
C1965       C  0.38995278  0.02599485  0.68129630     0.36200
C1966       C  0.35920275  0.47072134  0.56844961     0.36100
N1967       N  0.39682535  0.03715417  0.70423372    -0.44100
N1968       N  0.35293487  0.45866681  0.54578218    -0.44100
C1969       C  0.99866190  0.64624987  0.85028022    -0.00500
C1970       C  0.00655389  0.65457450  0.88019642    -0.12400
C1971       C  0.00627880  0.63336330  0.90397333     0.01700
C1972       C  0.99845913  0.60241384  0.89814294    -0.00600
C1973       C  0.49022407  0.59382568  0.86839322    -0.12400
C1974       C  0.49029763  0.61502491  0.84459387     0.01600
H1975       H  0.01297338  0.67800972  0.88527504     0.14600
H1976       H  0.48326208  0.57048346  0.86358123     0.14600
C1977       C  0.48081524  0.60412280  0.81497218     0.36200
C1978       C  0.01414336  0.64459246  0.93393696     0.36100
N1979       N  0.47333536  0.59470583  0.79146222    -0.44100
N1980       N  0.02011630  0.65408098  0.95784271    -0.44100
C1981       C  0.99916273  0.89607227  0.90015215    -0.00500
C1982       C  0.51828316  0.90166141  0.87262554    -0.12400
C1983       C  0.51899770  0.87946818  0.84956749     0.01700
C1984       C  0.99939062  0.85205733  0.85264928    -0.00600
C1985       C  0.98481966  0.84586779  0.88056728    -0.12400
C1986       C  0.98471333  0.86738668  0.90429014     0.01600
H1987       H  0.53146106  0.92251356  0.86990551     0.14600
H1988       H  0.97334952  0.82411597  0.88388929     0.14600
C1989       C  0.96912864  0.85949615  0.93227041     0.36200
C1990       C  0.53864668  0.88487412  0.82368090     0.36100
N1991       N  0.95681208  0.85306197  0.95472770    -0.44100
N1992       N  0.55465520  0.88943021  0.80318687    -0.44100
C1993       C  0.99893158  0.85289225  0.64817762    -0.00500
C1994       C  0.51467947  0.87999341  0.65365390    -0.12400
C1995       C  0.51490068  0.90342174  0.63192787     0.01700
C1996       C  0.00029712  0.89965601  0.60362044    -0.00600
C1997       C  0.98504463  0.87199102  0.59796203    -0.12400
C1998       C  0.98363768  0.84901940  0.62004787     0.01600
H1999       H  0.52664128  0.88339807  0.67502771     0.14600
H2000       H  0.97318378  0.86868053  0.57651185     0.14600
C2001       C  0.96444915  0.82285914  0.61386262     0.36200
C2002       C  0.53052319  0.93154384  0.63958676     0.36100
N2003       N  0.94858983  0.80231712  0.60867950    -0.44100
N2004       N  0.54269827  0.95415474  0.64605753    -0.44100
C2005       C  0.00288532  0.60168981  0.60282075    -0.00500
C2006       C  0.48436341  0.59759944  0.62922461    -0.12400
C2007       C  0.48251743  0.62035104  0.65155960     0.01700
C2008       C  0.99970344  0.64754401  0.64820084    -0.00600
C2009       C  0.01661182  0.65235078  0.62143916    -0.12400
C2010       C  0.01874744  0.62960299  0.59906525     0.01600
H2011       H  0.47051139  0.57712897  0.63149100     0.14600
H2012       H  0.02902664  0.67361440  0.61841476     0.14600
C2013       C  0.03889350  0.63484343  0.57352065     0.36200
C2014       C  0.46170327  0.61563949  0.67668043     0.36100
N2015       N  0.05538681  0.63906815  0.55334271    -0.44100
N2016       N  0.44490153  0.61165669  0.69665466    -0.44100
O2017       O  0.50062543  0.04959839  0.08745288    -0.80500
O2018       O  0.50018314  0.05155679  0.41554396    -0.82100
O2019       O  0.55141251  0.08622191  0.00126469    -0.79100
O2020       O  0.95116829  0.08817875  0.00062696    -0.77500
O2021       O  0.91396200  0.05153898  0.00004684    -0.79300
O2022       O  0.58804302  0.04913640  0.00249042    -0.80200
O2023       O  0.50033157  0.08863176  0.45222537    -0.81500
O2024       O  0.50302854  0.08669342  0.05079534    -0.81800
Eu2025     Eu  0.50074907  0.06192824  0.00085600     2.39200
O2026       O  0.96987354  0.03124055  0.46978949    -0.89300
O2027       O  0.53073330  0.03060590  0.03184597    -0.92900
C2028       C  0.50251262  0.07767354  0.07874139     1.01800
C2029       C  0.50006050  0.07984503  0.42419166     1.01600
C2030       C  0.57944503  0.07729042  0.00234434     1.01500
C2031       C  0.92296850  0.07969356  0.00049320     0.99400
H2032       H  0.54466123  0.04403216  0.45735711     0.29100
O2033       O  0.53185037  0.03108518  0.46979958    -1.01700
H2034       H  0.95602969  0.04451922  0.04366475     0.29200
O2035       O  0.96861049  0.03161951  0.03096115    -1.04200
O2036       O  0.49940071  0.44996239  0.41352086    -0.81500
O2037       O  0.49903694  0.45172552  0.08835166    -0.81000
O2038       O  0.58733606  0.00133405  0.45018193    -0.79400
O2039       O  0.91337250  0.00239878  0.44937881    -0.82800
O2040       O  0.91207075  0.99940816  0.04944956    -0.80600
O2041       O  0.58584547  0.00000490  0.05128101    -0.79300
O2042       O  0.54907843  0.41300327  0.00050776    -0.80800
O2043       O  0.94894116  0.41375367  0.00176137    -0.82700
O2044       O  0.58653013  0.44956989  0.00008911    -0.79500
O2045       O  0.91240867  0.45095381  0.00051463    -0.82200
O2046       O  0.55063375  0.00151467  0.41322556    -0.77900
O2047       O  0.54859086  0.00006038  0.08775906    -0.77900
O2048       O  0.94866046  0.00046429  0.08661695    -0.77600
O2049       O  0.95060059  0.00192720  0.41287124    -0.81100
O2050       O  0.49991773  0.41312116  0.45038179    -0.80500
O2051       O  0.49831122  0.41436931  0.05176019    -0.78800
Eu2052     Eu  0.50084585  0.00023014  0.43851007     2.39800
Eu2053     Eu  0.49898945  0.99978848  0.06224123     2.39600
Eu2054     Eu  0.56157863  0.99991857  0.00061853     2.38400
Eu2055     Eu  0.93776285  0.00068605  0.99968327     2.39900
Eu2056     Eu  0.49918088  0.43852685  0.00097854     2.39800
O2057       O  0.96787380  0.47006499  0.03230923    -0.93200
O2058       O  0.53045953  0.46911066  0.46937906    -0.92100
C2059       C  0.49946654  0.42173520  0.42228000     1.01900
C2060       C  0.49872688  0.42344972  0.07982585     1.00700
C2061       C  0.57865843  0.00205838  0.42204489     1.00000
C2062       C  0.92239497  0.00254173  0.42130618     1.02100
C2063       C  0.92066897  0.99962664  0.07757896     1.01000
C2064       C  0.57676658  0.00017581  0.07934125     0.99800
C2065       C  0.57727990  0.42153365  0.00020939     0.99900
C2066       C  0.92096745  0.42273418  0.00090978     0.99300
H2067       H  0.54288612  0.45692784  0.04441111     0.29900
O2068       O  0.53035588  0.46960622  0.03153658    -1.05400
H2069       H  0.95545654  0.45590351  0.45695675     0.31900
O2070       O  0.96822502  0.46859172  0.46971223    -1.08000
O2071       O  0.50094063  0.19905749  0.16259986    -0.80500
O2072       O  0.49904111  0.19790515  0.33500607    -0.82100
O2073       O  0.54858466  0.16167435  0.24702108    -0.79100
O2074       O  0.94870388  0.16176731  0.24937426    -0.77500
O2075       O  0.91209880  0.19897224  0.24833108    -0.79300
O2076       O  0.58545173  0.19870607  0.24849316    -0.80200
O2077       O  0.49905921  0.16069458  0.29844781    -0.81500
O2078       O  0.49897497  0.16229389  0.19959741    -0.81800
Eu2079     Eu  0.49883443  0.18722785  0.24946715     2.39200
O2080       O  0.96802149  0.21769022  0.28013921    -0.89300
O2081       O  0.53004145  0.21813207  0.21878225    -0.92900
C2082       C  0.50007880  0.17096429  0.17157006     1.01800
C2083       C  0.49901734  0.16957365  0.32646977     1.01600
C2084       C  0.57666300  0.17055083  0.24703680     1.01500
C2085       C  0.92072779  0.17083691  0.24854043     0.99400
H2086       H  0.54272457  0.20497430  0.29363318     0.29100
O2087       O  0.52997510  0.21773669  0.28103926    -1.01700
H2088       H  0.95549608  0.20463771  0.20545757     0.29200
O2089       O  0.96815134  0.21737446  0.21827700    -1.04200
O2090       O  0.49912006  0.29986090  0.33654902    -0.81500
O2091       O  0.49816884  0.29974195  0.16290836    -0.81000
O2092       O  0.58527330  0.24982652  0.30083669    -0.79400
O2093       O  0.91212100  0.24710789  0.29933444    -0.82800
O2094       O  0.91313274  0.24903176  0.19851936    -0.80600
O2095       O  0.58587151  0.24959957  0.19993535    -0.79300
O2096       O  0.54959300  0.33607702  0.24909942    -0.80800
O2097       O  0.94917350  0.33503988  0.24819563    -0.82700
O2098       O  0.58610433  0.29892599  0.24972212    -0.79500
O2099       O  0.91180154  0.29871786  0.24922074    -0.82200
O2100       O  0.54833579  0.25149698  0.33775730    -0.77900
O2101       O  0.54924315  0.25002202  0.16309081    -0.77900
O2102       O  0.95020271  0.24799671  0.16186696    -0.77600
O2103       O  0.94859271  0.24680021  0.33655655    -0.81100
O2104       O  0.50008917  0.33655086  0.29952082    -0.80500
O2105       O  0.49914720  0.33670666  0.19985791    -0.78800
Eu2106     Eu  0.49883273  0.24914136  0.31167546     2.39800
Eu2107     Eu  0.49938398  0.24925422  0.18786220     2.39600
Eu2108     Eu  0.56082040  0.24893877  0.25011825     2.38400
Eu2109     Eu  0.93733631  0.24876156  0.24914689     2.39900
Eu2110     Eu  0.49933254  0.31108115  0.24963874     2.39800
O2111       O  0.96832459  0.27966866  0.21818137    -0.93200
O2112       O  0.52986381  0.28006166  0.28076353    -0.92100
C2113       C  0.49993853  0.32806071  0.32767327     1.01900
C2114       C  0.49832151  0.32796219  0.17174070     1.00700
C2115       C  0.57642914  0.25114828  0.32895399     1.00000
C2116       C  0.92057202  0.24636912  0.32753625     1.02100
C2117       C  0.92211910  0.24844556  0.17044703     1.01000
C2118       C  0.57727149  0.25028898  0.17177707     0.99800
C2119       C  0.57764877  0.32715405  0.24935511     0.99900
C2120       C  0.92091727  0.32683204  0.24875957     1.02500
H2121       H  0.54304226  0.29287378  0.20624911     0.29900
O2122       O  0.53033807  0.28006188  0.21891804    -1.05400
H2123       H  0.95534739  0.29250471  0.29310495     0.31900
O2124       O  0.96810189  0.27974264  0.28043196    -1.08000
O2125       O  0.83684529  0.50021291  0.20166772    -0.80500
O2126       O  0.66290548  0.50115103  0.19912273    -0.82100
O2127       O  0.75072350  0.44953086  0.16444502    -0.79100
O2128       O  0.74897045  0.04968339  0.16277331    -0.77500
O2129       O  0.75038371  0.08700046  0.19942808    -0.79300
O2130       O  0.74935005  0.41276611  0.20145387    -0.80200
O2131       O  0.70023008  0.49927123  0.16272126    -0.81500
O2132       O  0.80024497  0.49955306  0.16448842    -0.81800
Eu2133     Eu  0.74981477  0.49996957  0.18893217     2.39200
O2134       O  0.71851994  0.03115164  0.21874035    -0.89300
O2135       O  0.77999958  0.46914918  0.22073218    -0.92900
C2136       C  0.82825190  0.50005073  0.17349781     1.01800
C2137       C  0.67200666  0.50009192  0.17111266     1.01600
C2138       C  0.75007588  0.42142213  0.17334305     1.01500
C2139       C  0.74962836  0.07793006  0.17142971     0.99400
H2140       H  0.70566812  0.45638681  0.20669231     0.29100
O2141       O  0.71824890  0.46915441  0.21956135    -1.01700
H2142       H  0.79341771  0.04329247  0.20580399     0.29200
O2143       O  0.78066155  0.03073958  0.21866335    -1.04200
O2144       O  0.66200589  0.50061161  0.30003088    -0.81500
O2145       O  0.83484257  0.50134295  0.30281865    -0.81000
O2146       O  0.69780321  0.41410419  0.25035283    -0.79400
O2147       O  0.69994676  0.08756329  0.24794790    -0.82800
O2148       O  0.79949340  0.08722356  0.24939960    -0.80600
O2149       O  0.79837100  0.41278980  0.25112675    -0.79300
O2150       O  0.74726468  0.45066591  0.33799806    -0.80800
O2151       O  0.74935711  0.05013245  0.33655652    -0.82700
O2152       O  0.74636441  0.41323578  0.30157740    -0.79500
O2153       O  0.74986423  0.08719761  0.29983112    -0.82200
O2154       O  0.66114627  0.45113279  0.24909933    -0.77900
O2155       O  0.83579474  0.44916458  0.25094812    -0.77900
O2156       O  0.83596954  0.04984542  0.24984148    -0.77600
O2157       O  0.66271021  0.05086324  0.24789722    -0.81100
O2158       O  0.69868595  0.50080126  0.33696539    -0.80500
O2159       O  0.79735644  0.50254732  0.33910989    -0.78800
Eu2160     Eu  0.68713192  0.50084558  0.24976301     2.39800
Eu2161     Eu  0.81125489  0.49995862  0.25170621     2.39600
Eu2162     Eu  0.74848976  0.43829913  0.25136173     2.38400
Eu2163     Eu  0.74972714  0.06209817  0.24948541     2.39900
Eu2164     Eu  0.74848880  0.50070948  0.31228597     2.39800
O2165       O  0.78079187  0.03129434  0.28034989    -0.93200
O2166       O  0.71730780  0.46982407  0.28144099    -0.92100
C2167       C  0.67069717  0.50042627  0.32817796     1.01900
C2168       C  0.82555458  0.50245457  0.33080811     1.00700
C2169       C  0.66972824  0.42293091  0.24927841     1.00000
C2170       C  0.67178496  0.07895853  0.24755179     1.02100
C2171       C  0.82739067  0.07804066  0.24978759     1.01000
C2172       C  0.82664993  0.42099606  0.25060179     0.99800
C2173       C  0.74645317  0.42233444  0.32961896     0.99900
C2174       C  0.74935949  0.07821282  0.32788157     1.02500
H2175       H  0.79225874  0.45625763  0.29553724     0.29900
O2176       O  0.77987694  0.46896961  0.28251912    -1.05400
H2177       H  0.70608352  0.04469066  0.29349742     0.31900
O2178       O  0.71866830  0.03175414  0.28092281    -1.08000
O2179       O  0.69941874  0.16217167  0.50068184    -0.80500
O2180       O  0.69920851  0.33694894  0.50192375    -0.82100
O2181       O  0.66375564  0.25097974  0.05145880    -0.79100
O2182       O  0.66151852  0.24929634  0.45011155    -0.77500
O2183       O  0.69817785  0.24653375  0.41306864    -0.79300
O2184       O  0.70088946  0.25097273  0.08781042    -0.80200
O2185       O  0.66220254  0.29994065  0.50028207    -0.81500
O2186       O  0.66245873  0.19909282  0.49960686    -0.81800
Eu2187     Eu  0.68722869  0.24934131  0.50007654     2.39200
O2188       O  0.71765906  0.28040407  0.46882772    -0.89300
O2189       O  0.71868327  0.21964014  0.03183390    -0.92900
C2190       C  0.67138326  0.17101263  0.50008530     1.01800
C2191       C  0.67109094  0.32813426  0.50152349     1.01600
C2192       C  0.67274145  0.25102328  0.07952058     1.01500
C2193       C  0.67014705  0.24762616  0.42197191     0.99400
H2194       H  0.70642667  0.29448681  0.04463861     0.29100
O2195       O  0.71896140  0.28169517  0.03176870    -1.01700
H2196       H  0.70515049  0.20469427  0.45656695     0.29200
O2197       O  0.71779441  0.21762113  0.46921332    -1.04200
O2198       O  0.79922097  0.33644907  0.49924415    -0.81500
O2199       O  0.79949510  0.16196348  0.49858849    -0.81000
O2200       O  0.75090189  0.30117068  0.08702790    -0.79400
O2201       O  0.74576184  0.29855253  0.41249377    -0.82800
O2202       O  0.75069074  0.19886568  0.41299211    -0.80600
O2203       O  0.75189622  0.20084900  0.08807410    -0.79300
O2204       O  0.83672880  0.25091381  0.04994075    -0.80800
O2205       O  0.83478245  0.24811678  0.44801011    -0.82700
O2206       O  0.80009503  0.25241649  0.08702593    -0.79500
O2207       O  0.79743606  0.24927798  0.41173166    -0.82200
O2208       O  0.75131870  0.33817133  0.05030129    -0.77900
O2209       O  0.75001542  0.16371593  0.05126892    -0.77900
O2210       O  0.75015924  0.16188302  0.44981756    -0.77600
O2211       O  0.74672657  0.33547868  0.44945857    -0.81100
O2212       O  0.83594305  0.29937310  0.49947562    -0.80500
O2213       O  0.83642617  0.19894652  0.49862165    -0.78800
Eu2214     Eu  0.74902888  0.31117408  0.49977584     2.39800
Eu2215     Eu  0.74946962  0.18708137  0.49995357     2.39600
Eu2216     Eu  0.75032814  0.25072538  0.06219010     2.38400
Eu2217     Eu  0.74826640  0.24881303  0.43807446     2.39900
Eu2218     Eu  0.81118902  0.24905579  0.49914450     2.39800
O2219       O  0.77985115  0.21804182  0.46853711    -0.93200
O2220       O  0.78110525  0.28143411  0.03096070    -0.92100
C2221       C  0.82729809  0.32756696  0.49963649     1.01900
C2222       C  0.82760257  0.17074824  0.49817879     1.00700
C2223       C  0.75147701  0.32935947  0.07830741     1.00000
C2224       C  0.74549537  0.32670438  0.42136466     1.02100
C2225       C  0.75103524  0.17076425  0.42177345     1.01000
C2226       C  0.75133961  0.17262995  0.07933800     0.99800
C2227       C  0.82808019  0.25207406  0.07808217     0.99900
C2228       C  0.82560966  0.24863169  0.42000016     1.02500
H2229       H  0.79388983  0.20669859  0.04401635     0.29900
O2230       O  0.78107666  0.21934270  0.03136999    -1.05400
H2231       H  0.79222565  0.29285075  0.45553065     0.31900
O2232       O  0.77978327  0.28006669  0.46848750    -1.08000
C2233       C  0.75164671  0.14857048  0.10309999    -0.00500
C2234       C  0.73215224  0.12325933  0.09965763    -0.12400
C2235       C  0.73094925  0.10013402  0.12167560     0.01700
C2236       C  0.74992811  0.10181253  0.14758778    -0.00600
C2237       C  0.76952568  0.12702083  0.15102311    -0.12400
C2238       C  0.77058767  0.15028803  0.12912149     0.01600
H2239       H  0.71721233  0.12191184  0.08001077     0.14600
H2240       H  0.78435662  0.12836448  0.17075944     0.14600
C2241       C  0.79211426  0.17494723  0.13353183     0.36200
C2242       C  0.70884671  0.07587516  0.11794724     0.36100
N2243       N  0.80953821  0.19447889  0.13742859    -0.44100
N2244       N  0.69097710  0.05657639  0.11506107    -0.44100
C2245       C  0.75166962  0.35321565  0.10229788    -0.00500
C2246       C  0.73541190  0.34772584  0.12933499    -0.12400
C2247       C  0.73432478  0.36958230  0.15262494     0.01700
C2248       C  0.75025870  0.39752675  0.14935755    -0.00600
C2249       C  0.76638647  0.40311137  0.12222276    -0.12400
C2250       C  0.76716946  0.38139563  0.09875553     0.01600
H2251       H  0.72287211  0.32647839  0.13203204     0.14600
H2252       H  0.77872541  0.42446192  0.11942094     0.14600
C2253       C  0.78474696  0.38844104  0.07176609     0.36200
C2254       C  0.71536990  0.36322868  0.17881608     0.36100
N2255       N  0.79878105  0.39425744  0.05016832    -0.44100
N2256       N  0.69999746  0.35801478  0.19963712    -0.44100
C2257       C  0.74558647  0.39842222  0.35375064    -0.00500
C2258       C  0.72980452  0.37090711  0.34809114    -0.12400
C2259       C  0.72887045  0.34741789  0.36984467     0.01700
C2260       C  0.74450087  0.35097669  0.39780076    -0.00600
C2261       C  0.75982600  0.37858978  0.40362605    -0.12400
C2262       C  0.76042486  0.40218840  0.38215188     0.01600
H2263       H  0.71773417  0.36788928  0.32672700     0.14600
H2264       H  0.77193980  0.38162791  0.42497347     0.14600
C2265       C  0.77741423  0.42947742  0.38976802     0.36200
C2266       C  0.71058592  0.32061591  0.36342689     0.36100
N2267       N  0.79102242  0.45123446  0.39627150    -0.44100
N2268       N  0.69578012  0.29924145  0.35841385    -0.44100
C2269       C  0.74920342  0.10174117  0.35200070    -0.00500
C2270       C  0.76748937  0.12778340  0.34823431    -0.12400
C2271       C  0.76921546  0.15009941  0.37102480     0.01700
C2272       C  0.75165907  0.14696261  0.39788357    -0.00600
C2273       C  0.73356312  0.12079420  0.40175873    -0.12400
C2274       C  0.73227350  0.09818077  0.37925095     0.01600
H2275       H  0.78123151  0.13025292  0.32779134     0.14600
H2276       H  0.71997657  0.11821447  0.42228980     0.14600
C2277       C  0.71278758  0.07205975  0.38462536     0.36200
C2278       C  0.79061103  0.17487318  0.36692945     0.36100
N2279       N  0.69717898  0.05124446  0.38942526    -0.44100
N2280       N  0.80816614  0.19432695  0.36336879    -0.44100
C2281       C  0.89673438  0.14722420  0.24812389    -0.00500
C2282       C  0.90039342  0.12129146  0.26646426    -0.12400
C2283       C  0.87796888  0.09863050  0.26759433     0.01700
C2284       C  0.85134411  0.10163821  0.24984709    -0.00600
C2285       C  0.84760301  0.12759365  0.23149707    -0.12400
C2286       C  0.87004156  0.15029839  0.23039591     0.01600
H2287       H  0.92048753  0.11914643  0.28061888     0.14600
H2288       H  0.82732348  0.12987937  0.21755839     0.14600
C2289       C  0.86548301  0.17588410  0.21012847     0.36200
C2290       C  0.88223958  0.07336586  0.28828663     0.36100
N2291       N  0.86171045  0.19633133  0.19386624    -0.44100
N2292       N  0.88571911  0.05323313  0.30498401    -0.44100
C2293       C  0.89724125  0.35134798  0.24902470    -0.00500
C2294       C  0.86712532  0.34381817  0.24098378    -0.12400
C2295       C  0.84391115  0.36581130  0.24106166     0.01700
C2296       C  0.85039545  0.39646290  0.24969031    -0.00600
C2297       C  0.88058071  0.40399020  0.25755581    -0.12400
C2298       C  0.90381949  0.38204465  0.25726610     0.01600
H2299       H  0.86160955  0.32059110  0.23417037     0.14600
H2300       H  0.88616913  0.42720318  0.26433049     0.14600
C2301       C  0.93401089  0.39187368  0.26616348     0.36200
C2302       C  0.81397867  0.35604807  0.23128795     0.36100
N2303       N  0.95828707  0.39959134  0.27311751    -0.44100
N2304       N  0.79008532  0.34802833  0.22340540    -0.44100
C2305       C  0.60081549  0.14694366  0.24603283    -0.00500
C2306       C  0.62788804  0.15244996  0.26219785    -0.12400
C2307       C  0.65128490  0.13082615  0.26287799     0.01700
C2308       C  0.64802545  0.10295971  0.24681643    -0.00600
C2309       C  0.62111791  0.09756299  0.23026253    -0.12400
C2310       C  0.59762626  0.11922349  0.22965347     0.01600
H2311       H  0.63049566  0.17348393  0.27511709     0.14600
H2312       H  0.61851457  0.07640903  0.21753960     0.14600
C2313       C  0.57108723  0.11276597  0.21123237     0.36200
C2314       C  0.67752065  0.13724790  0.28172461     0.36100
N2315       N  0.54991114  0.10749805  0.19639762    -0.44100
N2316       N  0.69838818  0.14248706  0.29699401    -0.44100
C2317       C  0.60174329  0.35114343  0.24895102    -0.00500
C2318       C  0.59505368  0.37976036  0.23599855    -0.12400
C2319       C  0.61681066  0.40326877  0.23520905     0.01700
C2320       C  0.64585941  0.39873780  0.24846655    -0.00600
C2321       C  0.65264089  0.37002476  0.26101755    -0.12400
C2322       C  0.63125444  0.34626782  0.26104063     0.01600
H2323       H  0.57288818  0.38363666  0.22578684     0.14600
H2324       H  0.67485998  0.36603685  0.27106446     0.14600
C2325       C  0.64048256  0.31740046  0.27403544     0.36200
C2326       C  0.60911344  0.43104755  0.21918416     0.36100
N2327       N  0.64824704  0.29429517  0.28421386    -0.44100
N2328       N  0.60299118  0.45315193  0.20608806    -0.44100
C2329       C  0.89842200  0.24895795  0.14643461    -0.00500
C2330       C  0.87114946  0.26462228  0.15238178    -0.12400
C2331       C  0.84818300  0.26654625  0.13042344     0.01700
C2332       C  0.85207563  0.25211342  0.10178082    -0.00600
C2333       C  0.87940758  0.23656324  0.09576631    -0.12400
C2334       C  0.90250297  0.23488908  0.11762079     0.01600
H2335       H  0.86796575  0.27602635  0.17414435     0.14600
H2336       H  0.88260910  0.22518109  0.07399372     0.14600
C2337       C  0.92966264  0.21789820  0.10987067     0.36200
C2338       C  0.82155759  0.28454432  0.13772935     0.36100
N2339       N  0.95134443  0.20433846  0.10331048    -0.44100
N2340       N  0.80045597  0.29914041  0.14394876    -0.44100
C2341       C  0.60139836  0.25143141  0.14787691    -0.00500
C2342       C  0.63150006  0.24429154  0.15611712    -0.12400
C2343       C  0.65508893  0.24411485  0.13464011     0.01700
C2344       C  0.64892352  0.25140996  0.10376945    -0.00600
C2345       C  0.61894786  0.25920699  0.09567012    -0.12400
C2346       C  0.59534672  0.25932876  0.11712892     0.01600
H2347       H  0.63671612  0.23815334  0.17947661     0.14600
H2348       H  0.61375771  0.26541019  0.07232182     0.14600
C2349       C  0.56544491  0.26819870  0.10657800     0.36200
C2350       C  0.68499529  0.23528927  0.14518486     0.36100
N2351       N  0.54159417  0.27529124  0.09786443    -0.44100
N2352       N  0.70885408  0.22814611  0.15382949    -0.44100
C2353       C  0.60035231  0.25110569  0.35280555    -0.00500
C2354       C  0.62461424  0.23042375  0.34992277    -0.12400
C2355       C  0.64749031  0.22872232  0.37211111     0.01700
C2356       C  0.64615325  0.24778047  0.39817102    -0.00600
C2357       C  0.62189845  0.26850453  0.40104287    -0.12400
C2358       C  0.59940760  0.27070717  0.37846928     0.01600
H2359       H  0.62556327  0.21527673  0.33031783     0.14600
H2360       H  0.62111532  0.28384179  0.42050663     0.14600
C2361       C  0.57710085  0.29479461  0.38123323     0.36200
C2362       C  0.67163780  0.20675402  0.36768464     0.36100
N2363       N  0.55981697  0.31460784  0.38369168    -0.44100
N2364       N  0.69088869  0.18913144  0.36368788    -0.44100
C2365       C  0.89617784  0.24578272  0.35112349    -0.00500
C2366       C  0.86869394  0.26113593  0.34526210    -0.12400
C2367       C  0.84529904  0.26225324  0.36702858     0.01700
C2368       C  0.84926257  0.24798832  0.39571269    -0.00600
C2369       C  0.87648081  0.23213651  0.40130988    -0.12400
C2370       C  0.89963266  0.23061382  0.37935431     0.01600
H2371       H  0.86559988  0.27278566  0.32367838     0.14600
H2372       H  0.87949151  0.22028992  0.42280281     0.14600
C2373       C  0.92589043  0.21200971  0.38606488     0.36200
C2374       C  0.81789395  0.27878782  0.35931059     0.36100
N2375       N  0.94661023  0.19677461  0.39182617    -0.44100
N2376       N  0.79597766  0.29192740  0.35279588    -0.44100
C2377       C  0.89705922  0.39879735  0.00061403    -0.00500
C2378       C  0.90199836  0.36994868  0.51390852    -0.12400
C2379       C  0.87955544  0.34716325  0.51505813     0.01700
C2380       C  0.85228521  0.35217547  0.00191830    -0.00600
C2381       C  0.84677735  0.37981737  0.98665757    -0.12400
C2382       C  0.86900195  0.40276013  0.98533725     0.01600
H2383       H  0.92335755  0.36637964  0.52580533     0.14600
H2384       H  0.82540351  0.38308558  0.97469673     0.14600
C2385       C  0.86320367  0.42898892  0.96624194     0.36200
C2386       C  0.88551093  0.32047400  0.53345356     0.36100
N2387       N  0.85866441  0.44972599  0.95054836    -0.44100
N2388       N  0.89036519  0.29930384  0.54845837    -0.44100
C2389       C  0.85134444  0.14757852  0.99958699    -0.00500
C2390       C  0.88018593  0.15499913  0.01148089    -0.12400
C2391       C  0.90376980  0.13350041  0.01230310     0.01700
C2392       C  0.89895617  0.10369271  0.00053695    -0.00600
C2393       C  0.87053954  0.09626075  0.48417693    -0.12400
C2394       C  0.84745742  0.11830617  0.48303581     0.01600
H2395       H  0.88425204  0.17764008  0.02082167     0.14600
H2396       H  0.86713207  0.07454678  0.47263960     0.14600
C2397       C  0.82053180  0.11148469  0.46531297     0.36200
C2398       C  0.93209289  0.14261041  0.02648029     0.36100
N2399       N  0.79909990  0.10600706  0.45092707    -0.44100
N2400       N  0.95462418  0.15019178  0.03796489    -0.44100
C2401       C  0.60084921  0.39742604  0.00045088    -0.00500
C2402       C  0.62549510  0.40027792  0.02062451    -0.12400
C2403       C  0.64816816  0.37780327  0.02199063     0.01700
C2404       C  0.64693821  0.35232218  0.00216125    -0.00600
C2405       C  0.62407149  0.35139949  0.48021201    -0.12400
C2406       C  0.60143167  0.37397461  0.47957221     0.01600
H2407       H  0.62658545  0.41973931  0.03598188     0.14600
H2408       H  0.62399004  0.33346388  0.46308650     0.14600
C2409       C  0.57905481  0.37318992  0.45547654     0.36200
C2410       C  0.67115424  0.38041320  0.04537815     0.36100
N2411       N  0.56107179  0.37294074  0.43621365    -0.44100
N2412       N  0.68915594  0.38248936  0.06452898    -0.44100
C2413       C  0.64744183  0.14846283  0.00164419    -0.00500
C2414       C  0.65208090  0.12212536  0.01929406    -0.12400
C2415       C  0.63055295  0.09843971  0.01972933     0.01700
C2416       C  0.60331126  0.10125903  0.00273622    -0.00600
C2417       C  0.59932577  0.12578530  0.48415978    -0.12400
C2418       C  0.62118832  0.14893476  0.48249624     0.01600
H2419       H  0.67269634  0.11998523  0.03275691     0.14600
H2420       H  0.57920085  0.12713676  0.46988660     0.14600
C2421       C  0.61612371  0.17354036  0.46119331     0.36200
C2422       C  0.63713200  0.07176022  0.03793155     0.36100
N2423       N  0.61157906  0.19297058  0.44392500    -0.44100
N2424       N  0.64290614  0.05039699  0.05233252    -0.44100
C2425       C  0.89865212  0.00321927  0.39704250    -0.00500
C2426       C  0.87144073  0.01941541  0.40212605    -0.12400
C2427       C  0.84822249  0.02006689  0.38009793     0.01700
C2428       C  0.85189420  0.00408641  0.35218508    -0.00600
C2429       C  0.87496782  0.48428932  0.35100296    -0.12400
C2430       C  0.89780226  0.48293691  0.37316747     0.01600
H2431       H  0.86835847  0.03182903  0.42334542     0.14600
H2432       H  0.87697301  0.47018513  0.33072119     0.14600
C2433       C  0.92216132  0.46121774  0.36880716     0.36200
C2434       C  0.82137913  0.03808146  0.38651366     0.36100
N2435       N  0.94135441  0.44345244  0.36524002    -0.44100
N2436       N  0.79996932  0.05258823  0.39181916    -0.44100
C2437       C  0.64894733  0.00162391  0.35315873    -0.00500
C2438       C  0.61856061  0.51368775  0.34590017    -0.12400
C2439       C  0.59538028  0.51453098  0.36783607     0.01700
C2440       C  0.60267338  0.00306981  0.39821846    -0.00600
C2441       C  0.63050330  0.98833674  0.40386492    -0.12400
C2442       C  0.65346301  0.98731615  0.38171924     0.01600
H2443       H  0.61461813  0.52406473  0.32380896     0.14600
H2444       H  0.63407317  0.97678717  0.42543022     0.14600
C2445       C  0.68078557  0.97030082  0.38865962     0.36200
C2446       C  0.56729190  0.52950175  0.35951640     0.36100
N2447       N  0.70260828  0.95663784  0.39435326    -0.44100
N2448       N  0.54502138  0.54153487  0.35216715    -0.44100
C2449       C  0.60048291  0.99988596  0.10352675    -0.00500
C2450       C  0.62801940  0.48439814  0.09760922    -0.12400
C2451       C  0.65113945  0.48329979  0.11962300     0.01700
C2452       C  0.64715574  0.99804235  0.14819355    -0.00600
C2453       C  0.61885456  0.01158611  0.15468933    -0.12400
C2454       C  0.59558584  0.01247138  0.13291025     0.01600
H2455       H  0.63045734  0.47106901  0.07686158     0.14600
H2456       H  0.61494265  0.02195164  0.17684074     0.14600
C2457       C  0.56728491  0.02708114  0.14138132     0.36200
C2458       C  0.67689031  0.46352299  0.11402527     0.36100
N2459       N  0.54459453  0.03862832  0.14835413    -0.44100
N2460       N  0.69740954  0.44754473  0.10948795    -0.44100
C2461       C  0.85147851  0.99952369  0.14741423    -0.00500
C2462       C  0.84947459  0.97893081  0.12283830    -0.12400
C2463       C  0.87192222  0.97839670  0.10000026     0.01700
C2464       C  0.89666765  0.99907945  0.10129578    -0.00600
C2465       C  0.90026281  0.51876583  0.12849602    -0.12400
C2466       C  0.87846860  0.51900625  0.15189416     0.01600
H2467       H  0.83069633  0.96276888  0.12184944     0.14600
H2468       H  0.92021521  0.53336012  0.13035842     0.14600
C2469       C  0.88330029  0.53918641  0.17755414     0.36200
C2470       C  0.87007226  0.95535202  0.07641005     0.36100
N2471       N  0.88725343  0.55531928  0.19812523    -0.44100
N2472       N  0.86898936  0.93682074  0.05756324    -0.44100
C2473       C  0.49925471  0.14597780  0.35090679    -0.00500
C2474       C  0.50742253  0.15511863  0.38055828    -0.12400
C2475       C  0.50721463  0.13459380  0.40494127     0.01700
C2476       C  0.49949440  0.10351195  0.39986022    -0.00600
C2477       C  0.98926507  0.09408911  0.37046126    -0.12400
C2478       C  0.98936227  0.11453794  0.34603487     0.01600
H2479       H  0.51387456  0.17868159  0.38496267     0.14600
H2480       H  0.98292793  0.07047578  0.36613367     0.14600
C2481       C  0.98112052  0.10238538  0.31653149     0.36200
C2482       C  0.51489495  0.14666398  0.43464681     0.36100
N2483       N  0.97467324  0.09172376  0.29324076    -0.44100
N2484       N  0.52076468  0.15699544  0.45823960    -0.44100
C2485       C  0.49914105  0.39751681  0.39833818    -0.00500
C2486       C  0.01120628  0.40363449  0.36923099    -0.12400
C2487       C  0.01183695  0.38157949  0.34598922     0.01700
C2488       C  0.50022472  0.35237264  0.35157429    -0.00600
C2489       C  0.48708654  0.34607051  0.38014523    -0.12400
C2490       C  0.48639451  0.36814881  0.40335327     0.01600
H2491       H  0.02047290  0.42620408  0.36471832     0.14600
H2492       H  0.47689137  0.32384160  0.38432940     0.14600
C2493       C  0.47164424  0.36015758  0.43173074     0.36200
C2494       C  0.02560906  0.39022694  0.31732296     0.36100
N2495       N  0.45993049  0.35384883  0.45453696    -0.44100
N2496       N  0.03672083  0.39747239  0.29449386    -0.44100
C2497       C  0.49790834  0.35222575  0.14804599    -0.00500
C2498       C  0.01609807  0.37760258  0.15229186    -0.12400
C2499       C  0.01695563  0.40114524  0.13065558     0.01700
C2500       C  0.49870752  0.39952568  0.10383544    -0.00600
C2501       C  0.48165035  0.37271700  0.09903763    -0.12400
C2502       C  0.48110283  0.34921315  0.12071068     0.01600
H2503       H  0.02982707  0.37963527  0.17275497     0.14600
H2504       H  0.46839671  0.37020805  0.07831558     0.14600
C2505       C  0.46225844  0.32278207  0.11460669     0.36200
C2506       C  0.03758947  0.42642627  0.13582494     0.36100
N2507       N  0.44710268  0.30168854  0.10951581    -0.44100
N2508       N  0.05445520  0.44638700  0.14002445    -0.44100
C2509       C  0.50323339  0.10126944  0.10266657    -0.00500
C2510       C  0.98280070  0.09778198  0.12710960    -0.12400
C2511       C  0.98162678  0.11977880  0.15014620     0.01700
C2512       C  0.50062044  0.14682537  0.14805907    -0.00600
C2513       C  0.52015913  0.15020319  0.12290564    -0.12400
C2514       C  0.52190053  0.12751066  0.10045142     0.01600
H2515       H  0.96828269  0.07770727  0.12865502     0.14600
H2516       H  0.53463807  0.17028022  0.12118176     0.14600
C2517       C  0.54416670  0.13088736  0.07638387     0.36200
C2518       C  0.96059179  0.11500180  0.17506957     0.36100
N2519       N  0.56223636  0.13345469  0.05730799    -0.44100
N2520       N  0.94366398  0.11100109  0.19493264    -0.44100
O2521       O  0.50174293  0.05035789  0.58743090    -0.80500
O2522       O  0.49882409  0.05101954  0.91424097    -0.82100
O2523       O  0.55167917  0.08565751  0.50201149    -0.79100
O2524       O  0.95017248  0.08656089  0.50046042    -0.77500
O2525       O  0.91290812  0.04997128  0.49897193    -0.79300
O2526       O  0.58843028  0.04858541  0.50345468    -0.80200
O2527       O  0.49922836  0.08748032  0.95145412    -0.81500
O2528       O  0.50414896  0.08755634  0.55084374    -0.81800
Eu2529     Eu  0.50085510  0.06201097  0.50102598     2.39200
O2530       O  0.96942878  0.03113658  0.96908235    -0.89300
O2531       O  0.53139713  0.03053671  0.53131718    -0.92900
C2532       C  0.50382436  0.07846629  0.57880088     1.01800
C2533       C  0.49872263  0.07915960  0.92328701     1.01600
C2534       C  0.57967280  0.07667286  0.50330528     1.01500
C2535       C  0.92197834  0.07804631  0.49959932     0.99400
H2536       H  0.54416897  0.04410890  0.95681868     0.29100
O2537       O  0.53136998  0.03124510  0.96935148    -1.01700
H2538       H  0.95600451  0.04447730  0.54424263     0.29200
O2539       O  0.96868153  0.03166011  0.53153037    -1.04200
O2540       O  0.49913144  0.44891321  0.91450839    -0.81500
O2541       O  0.49993370  0.44985278  0.58739105    -0.81000
O2542       O  0.58628790  0.00011163  0.94997331    -0.79400
O2543       O  0.91244396  0.00343625  0.94977099    -0.82800
O2544       O  0.91242015  0.99984689  0.54933188    -0.80600
O2545       O  0.58712679  0.99995192  0.55072299    -0.79300
O2546       O  0.54979078  0.41315202  0.50037553    -0.80800
O2547       O  0.94915097  0.41245968  0.49997710    -0.82700
O2548       O  0.58704867  0.44991350  0.50208514    -0.79500
O2549       O  0.91266251  0.44975020  0.49964837    -0.82200
O2550       O  0.54965772  0.00113277  0.91294120    -0.77900
O2551       O  0.55010499  0.00151409  0.58743183    -0.77900
O2552       O  0.94901535  0.00003035  0.58635145    -0.77600
O2553       O  0.94967104  0.00097001  0.91326100    -0.81100
O2554       O  0.49888343  0.41229475  0.95152161    -0.80500
O2555       O  0.49975396  0.41282372  0.55055506    -0.78800
Eu2556     Eu  0.49987714  0.00038648  0.93837115     2.39800
Eu2557     Eu  0.49992823  0.00032599  0.56213397     2.39600
Eu2558     Eu  0.56233216  0.99935277  0.50048201     2.38400
Eu2559     Eu  0.93829368  0.00024094  0.49979898     2.39900
Eu2560     Eu  0.49949233  0.43811794  0.50045044     2.39800
O2561       O  0.96828084  0.46858967  0.53160755    -0.93200
O2562       O  0.53047626  0.46859539  0.96928229    -0.92100
C2563       C  0.49869140  0.42076607  0.92337535     1.01900
C2564       C  0.50023520  0.42169544  0.57867700     1.00700
C2565       C  0.57769392  0.00087261  0.92178245     1.00000
C2566       C  0.92149931  0.00263545  0.92176019     1.02100
C2567       C  0.92092078  0.99959104  0.57746101     1.01000
C2568       C  0.57828634  0.00114506  0.57880677     0.99800
C2569       C  0.57795429  0.42182471  0.50135077     0.99900
C2570       C  0.92110104  0.42149576  0.49936827     0.99300
H2571       H  0.54310815  0.45622416  0.54427865     0.29900
O2572       O  0.53044490  0.46892363  0.53154831    -1.05400
H2573       H  0.95519101  0.45662529  0.95753600     0.31900
O2574       O  0.96797904  0.46940969  0.97017179    -1.08000
O2575       O  0.50232823  0.19935105  0.66303233    -0.80500
O2576       O  0.50006218  0.19958923  0.83657664    -0.82100
O2577       O  0.54839023  0.16182573  0.74837324    -0.79100
O2578       O  0.94897899  0.16354904  0.75057265    -0.77500
O2579       O  0.91278793  0.20110183  0.75046246    -0.79300
O2580       O  0.58604727  0.19806538  0.74940830    -0.80200
O2581       O  0.49907219  0.16286191  0.79962526    -0.81500
O2582       O  0.50030524  0.16259098  0.70008121    -0.81800
Eu2583     Eu  0.49902455  0.18790695  0.74987143     2.39200
O2584       O  0.96900542  0.21966171  0.78094306    -0.89300
O2585       O  0.53050323  0.21832705  0.71919875    -0.92900
C2586       C  0.50182919  0.17130324  0.67206409     1.01800
C2587       C  0.49944530  0.17138316  0.82774656     1.01600
C2588       C  0.57663201  0.17005926  0.74852539     1.01500
C2589       C  0.92103950  0.17280409  0.75049959     0.99400
H2590       H  0.54323361  0.20525784  0.79391426     0.29100
O2591       O  0.53063921  0.21810468  0.78125235    -1.01700
H2592       H  0.95590476  0.20654117  0.70615550     0.29200
O2593       O  0.96863755  0.21917153  0.71900268    -1.04200
O2594       O  0.49940737  0.30058687  0.83630058    -0.81500
O2595       O  0.50027667  0.29917050  0.66284865    -0.81000
O2596       O  0.58710064  0.24932639  0.80051102    -0.79400
O2597       O  0.91358550  0.24937832  0.80042916    -0.82800
O2598       O  0.91371711  0.25161915  0.69928770    -0.80600
O2599       O  0.58677111  0.24841379  0.69984170    -0.79300
O2600       O  0.55139697  0.33573127  0.74981931    -0.80800
O2601       O  0.95161091  0.33822254  0.75176903    -0.82700
O2602       O  0.58758927  0.29828933  0.75074374    -0.79500
O2603       O  0.91411352  0.30173778  0.75029950    -0.82200
O2604       O  0.55012180  0.25169910  0.83729628    -0.77900
O2605       O  0.54965546  0.24859081  0.66341961    -0.77900
O2606       O  0.95107529  0.25018910  0.66293474    -0.77600
O2607       O  0.95021336  0.24715702  0.83752138    -0.81100
O2608       O  0.50041222  0.33717867  0.79931156    -0.80500
O2609       O  0.50062557  0.33644166  0.69946551    -0.78800
Eu2610     Eu  0.49999319  0.24994876  0.81184436     2.39800
Eu2611     Eu  0.49992338  0.24940494  0.68830170     2.39600
Eu2612     Eu  0.56188805  0.24871893  0.75023266     2.38400
Eu2613     Eu  0.93837266  0.25098009  0.75003908     2.39900
Eu2614     Eu  0.50064932  0.31165495  0.74970038     2.39800
O2615       O  0.96978811  0.28164359  0.71925102    -0.93200
O2616       O  0.53129632  0.28053711  0.78082823    -0.92100
C2617       C  0.49974596  0.32875372  0.82742919     1.01900
C2618       C  0.50025258  0.32739741  0.67141963     1.00700
C2619       C  0.57828481  0.25099960  0.82860307     1.00000
C2620       C  0.92216000  0.24753423  0.82854021     1.02100
C2621       C  0.92284364  0.25086472  0.67121080     1.01000
C2622       C  0.57777314  0.24845044  0.67178732     0.99800
C2623       C  0.57938527  0.32655204  0.75024143     0.99900
C2624       C  0.92338415  0.32979799  0.75128511     1.02500
H2625       H  0.54431084  0.29267504  0.70632740     0.29900
O2626       O  0.53144474  0.28010832  0.71908884    -1.05400
H2627       H  0.95711975  0.29383327  0.79447231     0.31900
O2628       O  0.96974106  0.28110040  0.78163839    -1.08000
O2629       O  0.83737420  0.50031679  0.70196557    -0.80500
O2630       O  0.66363733  0.49986515  0.69975849    -0.82100
O2631       O  0.75103663  0.44891430  0.66530369    -0.79100
O2632       O  0.74919301  0.04939004  0.66371241    -0.77500
O2633       O  0.74798258  0.08690146  0.70007958    -0.79300
O2634       O  0.75060323  0.41229681  0.70229005    -0.80200
O2635       O  0.70091845  0.49945763  0.66331920    -0.81500
O2636       O  0.80090400  0.49961234  0.66482232    -0.81800
Eu2637     Eu  0.75056633  0.49980255  0.68951399     2.39200
O2638       O  0.71879934  0.03060237  0.71947033    -0.89300
O2639       O  0.78134806  0.46927775  0.72097040    -0.92900
C2640       C  0.82894927  0.50003748  0.67377673     1.01800
C2641       C  0.67267058  0.49954242  0.67169528     1.01600
C2642       C  0.75081854  0.42070574  0.67412100     1.01500
C2643       C  0.74818310  0.07764362  0.67207009     0.99400
H2644       H  0.70709820  0.45559634  0.70765725     0.29100
O2645       O  0.71965249  0.46856211  0.72035038    -1.01700
H2646       H  0.79343929  0.04430074  0.70683786     0.29200
O2647       O  0.78079176  0.03150031  0.71960456    -1.04200
O2648       O  0.66177170  0.50055452  0.79958541    -0.81500
O2649       O  0.83566215  0.50188457  0.80268960    -0.81000
O2650       O  0.70073975  0.41247389  0.75342082    -0.79400
O2651       O  0.69813794  0.08586833  0.75103879    -0.82800
O2652       O  0.79926734  0.08776480  0.75094076    -0.80600
O2653       O  0.80138612  0.41364508  0.74995056    -0.79300
O2654       O  0.75122596  0.45164376  0.83932330    -0.80800
O2655       O  0.75008504  0.04973684  0.83728936    -0.82700
O2656       O  0.75183457  0.41418770  0.80284613    -0.79500
O2657       O  0.74997269  0.08709184  0.80097603    -0.82200
O2658       O  0.66399323  0.44935606  0.75136763    -0.77900
O2659       O  0.83799308  0.45104464  0.75160504    -0.77900
O2660       O  0.83618384  0.05088144  0.75119396    -0.77600
O2661       O  0.66153443  0.04849298  0.75019181    -0.81100
O2662       O  0.69857901  0.50007334  0.83642489    -0.80500
O2663       O  0.79837617  0.50306330  0.83915392    -0.78800
Eu2664     Eu  0.68815564  0.50002733  0.75028234     2.39800
Eu2665     Eu  0.81188048  0.50067033  0.75193254     2.39600
Eu2666     Eu  0.75066024  0.43808238  0.75199331     2.38400
Eu2667     Eu  0.74914649  0.06222906  0.75047557     2.39900
Eu2668     Eu  0.74927166  0.50070845  0.81281939     2.39800
O2669       O  0.78036771  0.03142531  0.78110398    -0.93200
O2670       O  0.71870460  0.46919751  0.78196950    -0.92100
C2671       C  0.67052778  0.50014678  0.82764886     1.01900
C2672       C  0.82653297  0.50296333  0.83068955     1.00700
C2673       C  0.67262315  0.42120220  0.75282072     1.00000
C2674       C  0.67008693  0.07673205  0.75081406     1.02100
C2675       C  0.82739601  0.07900936  0.75150504     1.01000
C2676       C  0.82944205  0.42280438  0.75031243     0.99800
C2677       C  0.75207260  0.42342442  0.83086326     0.99900
C2678       C  0.75010183  0.07796912  0.82900106     1.02500
H2679       H  0.79400810  0.45715094  0.79576652     0.29900
O2680       O  0.78114877  0.46953250  0.78291146    -1.05400
H2681       H  0.70577860  0.04338834  0.79440572     0.31900
O2682       O  0.71858225  0.03084702  0.78154931    -1.08000
O2683       O  0.69926714  0.16359755  0.00180637    -0.80500
O2684       O  0.69918126  0.33747203  0.00226992    -0.82100
O2685       O  0.66283132  0.24744431  0.55041743    -0.79100
O2686       O  0.66291808  0.25106476  0.95027558    -0.77500
O2687       O  0.70000355  0.24997169  0.91356019    -0.79300
O2688       O  0.70002586  0.24800201  0.58685129    -0.80200
O2689       O  0.66221189  0.30044457  0.00059800    -0.81500
O2690       O  0.66247535  0.20063857  0.00101952    -0.81800
Eu2691     Eu  0.68788064  0.25068042  0.00071190     2.39200
O2692       O  0.71867922  0.28183413  0.96962055    -0.89300
O2693       O  0.71878850  0.21856617  0.53075241    -0.92900
C2694       C  0.67122350  0.17247913  0.00145061     1.01800
C2695       C  0.67102596  0.32859479  0.00175815     1.01600
C2696       C  0.67185260  0.24712662  0.57842880     1.01500
C2697       C  0.67188350  0.25032239  0.92218067     0.99400
H2698       H  0.70580178  0.29294980  0.54416313     0.29100
O2699       O  0.71837184  0.28025878  0.53122283    -1.01700
H2700       H  0.70599386  0.20655806  0.95701392     0.29200
O2701       O  0.71865436  0.21938899  0.96973741    -1.04200
O2702       O  0.80026783  0.33722026  0.00141002    -0.81500
O2703       O  0.79917134  0.16287724  0.00027804    -0.81000
O2704       O  0.75075928  0.30016947  0.58629741    -0.79400
O2705       O  0.74986598  0.30154030  0.91492172    -0.82800
O2706       O  0.75132431  0.20038806  0.91389295    -0.80600
O2707       O  0.75064354  0.19903325  0.58646267    -0.79300
O2708       O  0.83696620  0.24991112  0.54933199    -0.80800
O2709       O  0.83664993  0.24832619  0.94932415    -0.82700
O2710       O  0.80040180  0.25126214  0.58652652    -0.79500
O2711       O  0.79936070  0.24937866  0.91296723    -0.82200
O2712       O  0.75042198  0.33696462  0.54951182    -0.77900
O2713       O  0.74990280  0.16168317  0.54991350    -0.77900
O2714       O  0.75110391  0.16340286  0.95063221    -0.77600
O2715       O  0.75009992  0.33872538  0.95169419    -0.81100
O2716       O  0.83693909  0.30011087  0.00071833    -0.80500
O2717       O  0.83619434  0.19968850  0.99944409    -0.78800
Eu2718     Eu  0.74983433  0.31259847  0.00074667     2.39800
Eu2719     Eu  0.74948611  0.18846364  0.00087400     2.39600
Eu2720     Eu  0.75005613  0.24944230  0.56165747     2.38400
Eu2721     Eu  0.74972331  0.25062393  0.93887583     2.39900
Eu2722     Eu  0.81173093  0.25014030  0.99984643     2.39800
O2723       O  0.78022848  0.21931880  0.96958042    -0.93200
O2724       O  0.78046278  0.28024960  0.53014587    -0.92100
C2725       C  0.82831568  0.32827480  0.00148817     1.01900
C2726       C  0.82730626  0.17150481  0.99962122     1.00700
C2727       C  0.75095350  0.32842761  0.57763313     1.00000
C2728       C  0.74995905  0.32977504  0.92369939     1.02100
C2729       C  0.75189745  0.17220469  0.92253228     1.01000
C2730       C  0.75052863  0.17073971  0.57795572     0.99800
C2731       C  0.82848930  0.25118265  0.57758553     0.99900
C2732       C  0.82754385  0.24850402  0.92130337     1.02500
H2733       H  0.79373162  0.20544035  0.54333711     0.29900
O2734       O  0.78082035  0.21804406  0.53074426    -1.05400
H2735       H  0.79374998  0.29440274  0.95663971     0.31900
O2736       O  0.78096410  0.28174412  0.96939766    -1.08000
C2737       C  0.75068209  0.14692875  0.60209637    -0.00500
C2738       C  0.73608521  0.11882914  0.59646086    -0.12400
C2739       C  0.73472289  0.09602754  0.61881632     0.01700
C2740       C  0.74808087  0.10118059  0.64775275    -0.00600
C2741       C  0.76281730  0.12917110  0.65330541    -0.12400
C2742       C  0.76462253  0.15173671  0.63079305     0.01600
H2743       H  0.72521058  0.11479070  0.57462019     0.14600
H2744       H  0.77386031  0.13312346  0.67508080     0.14600
C2745       C  0.78242010  0.17879385  0.63735545     0.36200
C2746       C  0.71873206  0.06800478  0.61154024     0.36100
N2747       N  0.79691050  0.20030542  0.64265596    -0.44100
N2748       N  0.70601224  0.04556228  0.60555826    -0.44100
C2749       C  0.75133129  0.35252188  0.60188867    -0.00500
C2750       C  0.74373597  0.34412574  0.63189805    -0.12400
C2751       C  0.74387190  0.36539762  0.65580669     0.01700
C2752       C  0.75090361  0.39652693  0.64996277    -0.00600
C2753       C  0.75846534  0.40493907  0.61994641    -0.12400
C2754       C  0.75901586  0.38351716  0.59616619     0.01600
H2755       H  0.73774024  0.32059024  0.63694181     0.14600
H2756       H  0.76453724  0.42845906  0.61491684     0.14600
C2757       C  0.76830400  0.39434932  0.56647244     0.36200
C2758       C  0.73721825  0.35401571  0.68598913     0.36100
N2759       N  0.77582809  0.40346068  0.54286832    -0.44100
N2760       N  0.73240989  0.34447911  0.71011717    -0.44100
C2761       C  0.75251185  0.39978690  0.85492887    -0.00500
C2762       C  0.73542144  0.37303707  0.85023614    -0.12400
C2763       C  0.73382678  0.35031369  0.87251310     0.01700
C2764       C  0.75023409  0.35371212  0.89995377    -0.00600
C2765       C  0.76731730  0.38051402  0.90480238    -0.12400
C2766       C  0.76860957  0.40351379  0.88264277     0.01600
H2767       H  0.72241216  0.37027419  0.82939408     0.14600
H2768       H  0.78012250  0.38328596  0.92577812     0.14600
C2769       C  0.78753463  0.42996771  0.88860629     0.36200
C2770       C  0.71361038  0.32471650  0.86737343     0.36100
N2771       N  0.80283808  0.45096406  0.89370220    -0.44100
N2772       N  0.69716474  0.30437643  0.86337671    -0.44100
C2773       C  0.75068600  0.10158684  0.85340416    -0.00500
C2774       C  0.76391492  0.13014765  0.84704744    -0.12400
C2775       C  0.76520554  0.15323888  0.86916155     0.01700
C2776       C  0.75281656  0.14810656  0.89856212    -0.00600
C2777       C  0.74021699  0.11928568  0.90512250    -0.12400
C2778       C  0.73891376  0.09620010  0.88302433     0.01600
H2779       H  0.77363946  0.13443194  0.82470152     0.14600
H2780       H  0.73056199  0.11492102  0.92748080     0.14600
C2781       C  0.72452891  0.06764083  0.89140879     0.36200
C2782       C  0.78006634  0.18157902  0.86096871     0.36100
N2783       N  0.71307219  0.04479235  0.89828676    -0.44100
N2784       N  0.79198610  0.20417712  0.85406824    -0.44100
C2785       C  0.89671110  0.14919606  0.75063534    -0.00500
C2786       C  0.90192783  0.12156782  0.76599070    -0.12400
C2787       C  0.87965288  0.09862691  0.76699786     0.01700
C2788       C  0.85137392  0.10298435  0.75212665    -0.00600
C2789       C  0.84607249  0.13071608  0.73695362    -0.12400
C2790       C  0.86840071  0.15362466  0.73589805     0.01600
H2791       H  0.92333767  0.11807480  0.77778342     0.14600
H2792       H  0.82466402  0.13422796  0.72512885     0.14600
C2793       C  0.86213655  0.18070280  0.71817339     0.36200
C2794       C  0.88612727  0.07149751  0.78457721     0.36100
N2795       N  0.85719537  0.20234056  0.70386805    -0.44100
N2796       N  0.89146990  0.04988924  0.79877885    -0.44100
C2797       C  0.89979745  0.35401488  0.75134019    -0.00500
C2798       C  0.87553405  0.35169878  0.73062996    -0.12400
C2799       C  0.85285901  0.37419025  0.72938262     0.01700
C2800       C  0.85368979  0.39923150  0.74974722    -0.00600
C2801       C  0.87815826  0.40177520  0.77022138    -0.12400
C2802       C  0.90109070  0.37948594  0.77121276     0.01600
H2803       H  0.87473799  0.33263215  0.71477167     0.14600
H2804       H  0.87900893  0.42092430  0.78597481     0.14600
C2805       C  0.92474976  0.38259967  0.79387063     0.36200
C2806       C  0.83031513  0.37214813  0.70555296     0.36100
N2807       N  0.94347313  0.38527234  0.81224339    -0.44100
N2808       N  0.81270872  0.37061351  0.68600841    -0.44100
C2809       C  0.60003036  0.14567919  0.74864043    -0.00500
C2810       C  0.62653002  0.15032641  0.76595277    -0.12400
C2811       C  0.64908187  0.12785921  0.76773184     0.01700
C2812       C  0.64593208  0.10037095  0.75104553    -0.00600
C2813       C  0.61920698  0.09544040  0.73407066    -0.12400
C2814       C  0.59623833  0.11764543  0.73287625     0.01600
H2815       H  0.62923757  0.17128643  0.77896933     0.14600
H2816       H  0.61641872  0.07432038  0.72133352     0.14600
C2817       C  0.56943221  0.11119754  0.71482234     0.36200
C2818       C  0.67422577  0.13289597  0.78837296     0.36100
N2819       N  0.54790965  0.10582788  0.70052669    -0.44100
N2820       N  0.69412970  0.13689185  0.80520834    -0.44100
C2821       C  0.60372559  0.35026732  0.75060724    -0.00500
C2822       C  0.59633151  0.37976401  0.76086656    -0.12400
C2823       C  0.61820577  0.40300458  0.76229047     0.01700
C2824       C  0.64860422  0.39709237  0.75311514    -0.00600
C2825       C  0.65609027  0.36748467  0.74304250    -0.12400
C2826       C  0.63410921  0.34426797  0.74141665     0.01600
H2827       H  0.57331869  0.38470308  0.76830497     0.14600
H2828       H  0.67910059  0.36257650  0.73555599     0.14600
C2829       C  0.64326881  0.31508498  0.72886451     0.36200
C2830       C  0.60863042  0.43229763  0.77417243     0.36100
N2831       N  0.65046190  0.29172945  0.71869725    -0.44100
N2832       N  0.60070064  0.45566532  0.78371968    -0.44100
C2833       C  0.89921611  0.25095351  0.64675738    -0.00500
C2834       C  0.87189326  0.26689716  0.65172891    -0.12400
C2835       C  0.84904339  0.26796274  0.62940066     0.01700
C2836       C  0.85276403  0.25212359  0.60144704    -0.00600
C2837       C  0.88029275  0.23652838  0.59628509    -0.12400
C2838       C  0.90338609  0.23586506  0.61842337     0.01600
H2839       H  0.86862152  0.27926010  0.67295050     0.14600
H2840       H  0.88362764  0.22429302  0.57500590     0.14600
C2841       C  0.93062607  0.21859208  0.61167930     0.36200
C2842       C  0.82288504  0.28702443  0.63527677     0.36100
N2843       N  0.95244658  0.20479114  0.60617698    -0.44100
N2844       N  0.80222419  0.30267095  0.64019118    -0.44100
C2845       C  0.60140660  0.24806591  0.64745976    -0.00500
C2846       C  0.63045949  0.23651302  0.65434379    -0.12400
C2847       C  0.65348564  0.23523156  0.63225048     0.01700
C2848       C  0.64796506  0.24640952  0.60250726    -0.00600
C2849       C  0.61881115  0.25760902  0.59552068    -0.12400
C2850       C  0.59562097  0.25842055  0.61740704     0.01600
H2851       H  0.63511055  0.22777274  0.67698554     0.14600
H2852       H  0.61411180  0.26625867  0.57285214     0.14600
C2853       C  0.56644866  0.27060638  0.60816234     0.36200
C2854       C  0.68199190  0.22104258  0.64055247     0.36100
N2855       N  0.54309306  0.28018660  0.60054880    -0.44100
N2856       N  0.70475548  0.20950925  0.64717331    -0.44100
C2857       C  0.60227998  0.25158713  0.85255653    -0.00500
C2858       C  0.62832605  0.23328421  0.84882623    -0.12400
C2859       C  0.65129715  0.23261708  0.87102652     0.01700
C2860       C  0.64820424  0.25010976  0.89803236    -0.00600
C2861       C  0.62232316  0.26858466  0.90165894    -0.12400
C2862       C  0.59982245  0.26996110  0.87903127     0.01600
H2863       H  0.63066748  0.21923699  0.82854501     0.14600
H2864       H  0.62018443  0.28286924  0.92180231     0.14600
C2865       C  0.57579643  0.29218630  0.88258345     0.36200
C2866       C  0.67754497  0.21342442  0.86563682     0.36100
N2867       N  0.55699850  0.31048803  0.88546862    -0.44100
N2868       N  0.69871227  0.19828375  0.86122171    -0.44100
C2869       C  0.89782102  0.24649639  0.85211268    -0.00500
C2870       C  0.87176774  0.26462446  0.84810934    -0.12400
C2871       C  0.84846087  0.26519354  0.86997588     0.01700
C2872       C  0.85115517  0.24775304  0.89696408    -0.00600
C2873       C  0.87690082  0.22906842  0.90067296    -0.12400
C2874       C  0.89981634  0.22787205  0.87833146     0.01600
H2875       H  0.86975669  0.27878539  0.82793507     0.14600
H2876       H  0.87875748  0.21476212  0.92076177     0.14600
C2877       C  0.92388417  0.20575719  0.88186274     0.36200
C2878       C  0.82247711  0.28459788  0.86439510     0.36100
N2879       N  0.94274812  0.18754792  0.88460696    -0.44100
N2880       N  0.80159704  0.30002268  0.85975246    -0.44100
C2881       C  0.89685561  0.39769501  0.49872692    -0.00500
C2882       C  0.90259858  0.37115658  0.01585945    -0.12400
C2883       C  0.88074454  0.34782956  0.01641585     0.01700
C2884       C  0.85138744  0.35147811  0.50000271    -0.00600
C2885       C  0.84618498  0.37922939  0.48481249    -0.12400
C2886       C  0.86846351  0.40225038  0.48408185     0.01600
H2887       H  0.92408496  0.36777560  0.02758942     0.14600
H2888       H  0.82473412  0.38284229  0.47308933     0.14600
C2889       C  0.86171137  0.42989971  0.46743788     0.36200
C2890       C  0.88814873  0.32001741  0.03250626     0.36100
N2891       N  0.85618557  0.45206869  0.45419106    -0.44100
N2892       N  0.89437704  0.29773679  0.04524188    -0.44100
C2893       C  0.85158179  0.14685561  0.49772794    -0.00500
C2894       C  0.87932493  0.15279546  0.51259340    -0.12400
C2895       C  0.90252348  0.13090099  0.51345208     0.01700
C2896       C  0.89822006  0.10215123  0.49922604    -0.00600
C2897       C  0.87009856  0.09628968  0.98865452    -0.12400
C2898       C  0.84638583  0.11763608  0.98824808     0.01600
H2899       H  0.88276799  0.17452350  0.52408756     0.14600
H2900       H  0.86595909  0.07362376  0.97941417     0.14600
C2901       C  0.81748417  0.10794358  0.97569502     0.36200
C2902       C  0.93005990  0.13832591  0.52995855     0.36100
N2903       N  0.79437395  0.09981758  0.96583959    -0.44100
N2904       N  0.95221454  0.14417043  0.54305340    -0.44100
C2905       C  0.60156594  0.39771227  0.50140329    -0.00500
C2906       C  0.62463087  0.39842305  0.52354282    -0.12400
C2907       C  0.64727941  0.37580580  0.52424483     0.01700
C2908       C  0.64724835  0.35210946  0.50224662    -0.00600
C2909       C  0.62202318  0.34928976  0.98226107    -0.12400
C2910       C  0.59906097  0.37150677  0.98129487     0.01600
H2911       H  0.62467329  0.41643394  0.54060161     0.14600
H2912       H  0.62077482  0.32975989  0.96701216     0.14600
C2913       C  0.57460760  0.36785517  0.95957695     0.36200
C2914       C  0.66939516  0.37669299  0.54858021     0.36100
N2915       N  0.55500065  0.36508457  0.94217440    -0.44100
N2916       N  0.68682618  0.37750551  0.56833672    -0.44100
C2917       C  0.64778131  0.14704835  0.50047996    -0.00500
C2918       C  0.65190509  0.12177601  0.51968676    -0.12400
C2919       C  0.62994984  0.09863771  0.52142815     0.01700
C2920       C  0.60338474  0.10053228  0.50334848    -0.00600
C2921       C  0.59870875  0.12763135  0.98516571    -0.12400
C2922       C  0.62061667  0.15086795  0.98404610     0.01600
H2923       H  0.67209059  0.12043070  0.53389465     0.14600
H2924       H  0.57828626  0.12966097  0.97140509     0.14600
C2925       C  0.61585206  0.17571493  0.96294785     0.36200
C2926       C  0.63474013  0.07426933  0.54307101     0.36100
N2927       N  0.61191175  0.19524708  0.94564098    -0.44100
N2928       N  0.63909952  0.05516771  0.56074749    -0.44100
C2929       C  0.89783229  0.00348609  0.89760627    -0.00500
C2930       C  0.87223432  0.02247748  0.90128658    -0.12400
C2931       C  0.84934253  0.02364050  0.87897552     0.01700
C2932       C  0.85171065  0.00526467  0.85251955    -0.00600
C2933       C  0.87712855  0.48665633  0.84959596    -0.12400
C2934       C  0.90030034  0.48576881  0.87141808     0.01600
H2935       H  0.87031223  0.03675431  0.92145529     0.14600
H2936       H  0.87983847  0.47374284  0.82861897     0.14600
C2937       C  0.92655447  0.46685477  0.86519334     0.36200
C2938       C  0.82445292  0.04480369  0.88317580     0.36100
N2939       N  0.94754156  0.45165303  0.86017079    -0.44100
N2940       N  0.80468178  0.06195607  0.88653913    -0.44100
C2941       C  0.64875235  0.99884235  0.85336409    -0.00500
C2942       C  0.61959734  0.51625238  0.84674340    -0.12400
C2943       C  0.59680566  0.51727998  0.86911181     0.01700
C2944       C  0.60185584  0.00102796  0.89795445    -0.00600
C2945       C  0.62962471  0.98629706  0.90406663    -0.12400
C2946       C  0.65291931  0.98501475  0.88221368     0.01600
H2947       H  0.61643298  0.52872506  0.82562773     0.14600
H2948       H  0.63298668  0.97514500  0.92587162     0.14600
C2949       C  0.68026212  0.96832037  0.88979858     0.36200
C2950       C  0.57025295  0.53584423  0.86330868     0.36100
N2951       N  0.70207687  0.95489375  0.89606080    -0.44100
N2952       N  0.54911866  0.55085893  0.85851076    -0.44100
C2953       C  0.60240756  0.00140234  0.60267382    -0.00500
C2954       C  0.62935511  0.48644158  0.59706959    -0.12400
C2955       C  0.65282303  0.48567098  0.61873275     0.01700
C2956       C  0.64924886  0.99925611  0.64726221    -0.00600
C2957       C  0.62178778  0.01465592  0.65311724    -0.12400
C2958       C  0.59854424  0.01591007  0.63129291     0.01600
H2959       H  0.63275813  0.47517697  0.57527174     0.14600
H2960       H  0.61853896  0.02614719  0.67482235     0.14600
C2961       C  0.57145604  0.03304778  0.63882297     0.36200
C2962       C  0.68042901  0.46956141  0.61078951     0.36100
N2963       N  0.54986691  0.04682304  0.64521130    -0.44100
N2964       N  0.70247660  0.45668354  0.60410592    -0.44100
C2965       C  0.85251778  0.99946597  0.64867329    -0.00500
C2966       C  0.84583707  0.98673476  0.61997628    -0.12400
C2967       C  0.86759787  0.98623668  0.59655700     0.01700
C2968       C  0.89685733  0.99912651  0.60141764    -0.00600
C2969       C  0.90406112  0.51185433  0.63107990    -0.12400
C2970       C  0.88240351  0.51260333  0.65453509     0.01600
H2971       H  0.82362240  0.97656590  0.61591343     0.14600
H2972       H  0.92632698  0.52197205  0.63499915     0.14600
C2973       C  0.89092381  0.52752265  0.68268712     0.36200
C2974       C  0.85951702  0.97112881  0.56835747     0.36100
N2975       N  0.89804161  0.53954777  0.70511141    -0.44100
N2976       N  0.85300903  0.95890758  0.54584995    -0.44100
C2977       C  0.49919354  0.14728063  0.85173501    -0.00500
C2978       C  0.50537152  0.15585646  0.88202925    -0.12400
C2979       C  0.50456364  0.13460825  0.90579098     0.01700
C2980       C  0.49827018  0.10340521  0.89947150    -0.00600
C2981       C  0.99235761  0.09383874  0.86826072    -0.12400
C2982       C  0.99301862  0.11523747  0.84463821     0.01600
H2983       H  0.51066489  0.17949962  0.88742562     0.14600
H2984       H  0.98750844  0.07013465  0.86271237     0.14600
C2985       C  0.98715723  0.10400420  0.81419307     0.36200
C2986       C  0.51027336  0.14594853  0.93623345     0.36100
N2987       N  0.98263081  0.09469634  0.78989286    -0.44100
N2988       N  0.51458070  0.15517609  0.96060583    -0.44100
C2989       C  0.49816824  0.39680090  0.89923165    -0.00500
C2990       C  0.01336011  0.40316355  0.87180546    -0.12400
C2991       C  0.01400334  0.38133770  0.84842137     0.01700
C2992       C  0.49898115  0.35291823  0.85139486    -0.00600
C2993       C  0.48953431  0.34481954  0.88096540    -0.12400
C2994       C  0.48864597  0.36631108  0.90462688     0.01600
H2995       H  0.02396240  0.42527319  0.86799479     0.14600
H2996       H  0.48229999  0.32156123  0.88567477     0.14600
C2997       C  0.47687266  0.35632991  0.93374415     0.36200
C2998       C  0.02871085  0.38968609  0.82013082     0.36100
N2999       N  0.46729401  0.34810538  0.95693042    -0.44100
N3000       N  0.04027265  0.39650701  0.79739567    -0.44100
C3001       C  0.50005729  0.35120460  0.64739712    -0.00500
C3002       C  0.01684765  0.37938000  0.65350555    -0.12400
C3003       C  0.01734675  0.40261859  0.63154284     0.01700
C3004       C  0.50090985  0.39780978  0.60264199    -0.00600
C3005       C  0.48646957  0.36969960  0.59686785    -0.12400
C3006       C  0.48542077  0.34673985  0.61901528     0.01600
H3007       H  0.02877034  0.38283726  0.67489551     0.14600
H3008       H  0.47493934  0.36601126  0.57530296     0.14600
C3009       C  0.46730667  0.31984469  0.61265748     0.36200
C3010       C  0.03398030  0.43031535  0.63858689     0.36100
N3011       N  0.45245073  0.29853758  0.60756188    -0.44100
N3012       N  0.04724216  0.45245278  0.64452886    -0.44100
C3013       C  0.50469219  0.10194382  0.60290199    -0.00500
C3014       C  0.98051653  0.10196425  0.62521949    -0.12400
C3015       C  0.97939241  0.12441496  0.64792521     0.01700
C3016       C  0.50266531  0.14725310  0.64857543    -0.00600
C3017       C  0.52603660  0.14750199  0.62670125    -0.12400
C3018       C  0.52743316  0.12483508  0.60410516     0.01600
H3019       H  0.96307978  0.08433108  0.62453184     0.14600
H3020       H  0.54350436  0.16509271  0.62764627     0.14600
C3021       C  0.55325316  0.12462369  0.58365810     0.36200
C3022       C  0.95438071  0.12381509  0.66936430     0.36100
N3023       N  0.57433500  0.12458062  0.56777416    -0.44100
N3024       N  0.93420266  0.12338783  0.68638173    -0.44100
O3025       O  0.50052044  0.55209214  0.08555804    -0.80500
O3026       O  0.49939249  0.55104791  0.41512354    -0.82100
O3027       O  0.55107821  0.58637640  0.00001024    -0.79100
O3028       O  0.95082305  0.58840962  0.00161161    -0.77500
O3029       O  0.91359085  0.55175121  0.00178820    -0.79300
O3030       O  0.58777370  0.54936674  0.00091975    -0.80200
O3031       O  0.49919180  0.58806725  0.45185268    -0.81500
O3032       O  0.50247086  0.58869552  0.04842878    -0.81800
Eu3033     Eu  0.50055520  0.56204401  0.99959924     2.39200
O3034       O  0.96836743  0.53119052  0.46975199    -0.89300
O3035       O  0.53092640  0.53112970  0.03071664    -0.92900
C3036       C  0.50198862  0.58012408  0.07648653     1.01800
C3037       C  0.49936931  0.57929199  0.42376436     1.01600
C3038       C  0.57913133  0.57753785  0.00088567     1.01500
C3039       C  0.92265576  0.57986047  0.00213523     0.99400
H3040       H  0.54335353  0.54407477  0.45742677     0.29100
O3041       O  0.53061339  0.53118329  0.46999916    -1.01700
H3042       H  0.95628663  0.54521359  0.04445800     0.29200
O3043       O  0.96875418  0.53222297  0.03173565    -1.04200
O3044       O  0.50006861  0.94947123  0.41370915    -0.81500
O3045       O  0.49968175  0.94989536  0.08774838    -0.81000
O3046       O  0.58544623  0.50051855  0.44941952    -0.79400
O3047       O  0.91134996  0.50162293  0.45149788    -0.82800
O3048       O  0.91168352  0.50032654  0.05057373    -0.80600
O3049       O  0.58636914  0.50038652  0.05031854    -0.79300
O3050       O  0.54893094  0.91346133  0.99967993    -0.80800
O3051       O  0.94948520  0.91357198  0.99997329    -0.82700
O3052       O  0.58614179  0.94987688  0.00004049    -0.79500
O3053       O  0.91264466  0.95046418  0.99751876    -0.82200
O3054       O  0.54840143  0.50124357  0.41281511    -0.77900
O3055       O  0.54934081  0.50213488  0.08710254    -0.77900
O3056       O  0.94852681  0.50134446  0.08747721    -0.77600
O3057       O  0.94794340  0.50015985  0.41433305    -0.81100
O3058       O  0.49948581  0.91259550  0.45061660    -0.80500
O3059       O  0.49945533  0.91308757  0.05066565    -0.78800
Eu3060     Eu  0.49919037  0.50037808  0.43890815     2.39800
Eu3061     Eu  0.49922703  0.50120440  0.06195903     2.39600
Eu3062     Eu  0.56170006  0.49976261  0.99990668     2.38400
Eu3063     Eu  0.93755186  0.50115611  0.00094487     2.39900
Eu3064     Eu  0.49921551  0.93863304  0.00058585     2.39800
O3065       O  0.96786569  0.96928239  0.03114252    -0.93200
O3066       O  0.53140389  0.96857164  0.46926179    -0.92100
C3067       C  0.49925637  0.92124452  0.42251015     1.01900
C3068       C  0.49989520  0.92175748  0.07885052     1.00700
C3069       C  0.57650520  0.50125952  0.42129701     1.00000
C3070       C  0.91987129  0.50096480  0.42335738     1.02100
C3071       C  0.92042117  0.50057014  0.07865401     1.01000
C3072       C  0.57748918  0.50157468  0.07840869     0.99800
C3073       C  0.57711729  0.92178728  0.99968512     0.99900
C3074       C  0.92148618  0.92232447  0.99812376     0.99300
H3075       H  0.54302757  0.95612426  0.04430394     0.29900
O3076       O  0.53045683  0.96897700  0.03164030    -1.05400
H3077       H  0.95651402  0.95624612  0.45635933     0.31900
O3078       O  0.96922159  0.96891594  0.46919683    -1.08000
O3079       O  0.50076820  0.70042647  0.16224360    -0.80500
O3080       O  0.49961482  0.69740355  0.33480508    -0.82100
O3081       O  0.55001686  0.66362464  0.24700799    -0.79100
O3082       O  0.94800808  0.66386269  0.24799539    -0.77500
O3083       O  0.91093838  0.70064118  0.24728935    -0.79300
O3084       O  0.58692690  0.70068539  0.24865167    -0.80200
O3085       O  0.50002582  0.66057658  0.29786900    -0.81500
O3086       O  0.49972210  0.66321206  0.19874996    -0.81800
Eu3087     Eu  0.49947831  0.68768837  0.24901438     2.39200
O3088       O  0.96749918  0.71819862  0.27976673    -0.89300
O3089       O  0.53084443  0.71919395  0.21895562    -0.92900
C3090       C  0.50021154  0.67224296  0.17079253     1.01800
C3091       C  0.49994616  0.66916705  0.32601160     1.01600
C3092       C  0.57810042  0.67252982  0.24716734     1.01500
C3093       C  0.91987833  0.67263306  0.24726515     0.99400
H3094       H  0.54311067  0.70550868  0.29307768     0.29100
O3095       O  0.53034401  0.71838249  0.28062180    -1.01700
H3096       H  0.95531891  0.70649365  0.20498884     0.29200
O3097       O  0.96788531  0.71912178  0.21799613    -1.04200
O3098       O  0.49935646  0.79911896  0.33725092    -0.81500
O3099       O  0.49747462  0.79930490  0.16270068    -0.81000
O3100       O  0.58585986  0.74946364  0.30129994    -0.79400
O3101       O  0.91174157  0.74755855  0.29958687    -0.82800
O3102       O  0.91214048  0.75086911  0.19887817    -0.80600
O3103       O  0.58608445  0.75298864  0.20010278    -0.79300
O3104       O  0.54794359  0.83773935  0.25216504    -0.80800
O3105       O  0.94852943  0.83621130  0.24947150    -0.82700
O3106       O  0.58524668  0.80127461  0.25426183    -0.79500
O3107       O  0.91141720  0.79967254  0.24994463    -0.82200
O3108       O  0.54854119  0.74888285  0.33774361    -0.77900
O3109       O  0.54937669  0.75190124  0.16330260    -0.77900
O3110       O  0.94938413  0.74974331  0.16234657    -0.77600
O3111       O  0.94836830  0.74645379  0.33662928    -0.81100
O3112       O  0.49856351  0.83593590  0.30033599    -0.80500
O3113       O  0.49818964  0.83620314  0.19968705    -0.78800
Eu3114     Eu  0.49891638  0.74873222  0.31178297     2.39800
Eu3115     Eu  0.49957903  0.74992513  0.18831228     2.39600
Eu3116     Eu  0.56128572  0.75044819  0.25055669     2.38400
Eu3117     Eu  0.93679082  0.74985430  0.24928882     2.39900
Eu3118     Eu  0.49858755  0.81135388  0.25017357     2.39800
O3119       O  0.96757462  0.78119828  0.21861478    -0.93200
O3120       O  0.52940350  0.78049816  0.28122992    -0.92100
C3121       C  0.49926813  0.82733774  0.32841985     1.01900
C3122       C  0.49739173  0.82740486  0.17152669     1.00700
C3123       C  0.57677158  0.74918458  0.32938658     1.00000
C3124       C  0.92034335  0.74632054  0.32773018     1.02100
C3125       C  0.92123325  0.75017035  0.17085065     1.01000
C3126       C  0.57741449  0.75316317  0.17192082     0.99800
C3127       C  0.57605146  0.82931850  0.25416286     0.99900
C3128       C  0.92038313  0.82779700  0.24967173     1.02500
H3129       H  0.54288474  0.79449482  0.20696109     0.29900
O3130       O  0.53035854  0.78125237  0.21937010    -1.05400
H3131       H  0.95465217  0.79288399  0.29400782     0.31900
O3132       O  0.96740787  0.78035140  0.28110091    -1.08000
O3133       O  0.83644764  0.99976221  0.19948702    -0.80500
O3134       O  0.66250570  0.99932923  0.20010648    -0.82100
O3135       O  0.75005595  0.94930004  0.16381590    -0.79100
O3136       O  0.74819618  0.55009230  0.16342610    -0.77500
O3137       O  0.74954508  0.58739189  0.20009667    -0.79300
O3138       O  0.74914655  0.91273339  0.20093774    -0.80200
O3139       O  0.69933541  0.99875495  0.16319607    -0.81500
O3140       O  0.79949665  0.99829476  0.16268063    -0.81800
Eu3141     Eu  0.74935739  0.99958709  0.18820726     2.39200
O3142       O  0.71873973  0.53150489  0.21913652    -0.89300
O3143       O  0.77954211  0.96866479  0.21961739    -0.92900
C3144       C  0.82761091  0.99908777  0.17140356     1.01800
C3145       C  0.67124014  0.99860770  0.17198055     1.01600
C3146       C  0.74975496  0.92123445  0.17279848     1.01500
C3147       C  0.74854829  0.57835434  0.17206713     0.99400
H3148       H  0.70508208  0.95598307  0.20688830     0.29100
O3149       O  0.71787487  0.96888305  0.21933105    -1.01700
H3150       H  0.79366518  0.54362786  0.20728602     0.29200
O3151       O  0.78084051  0.53096787  0.22001614    -1.04200
O3152       O  0.66318863  0.00173260  0.30083757    -0.81500
O3153       O  0.83644900  0.00116490  0.30012371    -0.81000
O3154       O  0.69769866  0.91342013  0.25276078    -0.79400
O3155       O  0.69951863  0.58748876  0.24900442    -0.82800
O3156       O  0.79948118  0.58753462  0.24990988    -0.80600
O3157       O  0.79781319  0.91241678  0.24946881    -0.79300
O3158       O  0.74900284  0.95097313  0.33737517    -0.80800
O3159       O  0.74859272  0.55093105  0.33698257    -0.82700
O3160       O  0.74777253  0.91341430  0.30109049    -0.79500
O3161       O  0.75010040  0.58808980  0.30041313    -0.82200
O3162       O  0.66151380  0.95104402  0.25200869    -0.77900
O3163       O  0.83507844  0.94890587  0.24770952    -0.77900
O3164       O  0.83617331  0.55043267  0.25215933    -0.77600
O3165       O  0.66210001  0.55096033  0.24795826    -0.81100
O3166       O  0.70054746  0.00089323  0.33708936    -0.80500
O3167       O  0.79967531  0.00298754  0.33703966    -0.78800
Eu3168     Eu  0.68748933  0.00068069  0.25018844     2.39800
Eu3169     Eu  0.81127408  0.99958785  0.24975046     2.39600
Eu3170     Eu  0.74832780  0.93808515  0.25082872     2.38400
Eu3171     Eu  0.74954806  0.56243973  0.25031595     2.39900
Eu3172     Eu  0.74992326  0.00054262  0.31145889     2.39800
O3173       O  0.78000117  0.53152193  0.28175818    -0.93200
O3174       O  0.71799496  0.96974538  0.28142134    -0.92100
C3175       C  0.67239925  0.00129401  0.32881087     1.01900
C3176       C  0.82777308  0.00287182  0.32828699     1.00700
C3177       C  0.66975705  0.92275307  0.25275767     1.00000
C3178       C  0.67132025  0.57901602  0.24822976     1.02100
C3179       C  0.82745707  0.57861027  0.25106094     1.01000
C3180       C  0.82596807  0.92078708  0.24797793     0.99800
C3181       C  0.74827911  0.92268039  0.32904701     0.99900
C3182       C  0.74927555  0.57911481  0.32846084     1.02500
H3183       H  0.79327971  0.95595780  0.29404255     0.29900
O3184       O  0.78062950  0.96860259  0.28127411    -1.05400
H3185       H  0.70511208  0.54483978  0.29364996     0.31900
O3186       O  0.71787224  0.53191554  0.28113505    -1.08000
O3187       O  0.69959445  0.66270379  0.50160448    -0.80500
O3188       O  0.69931741  0.83698562  0.49749397    -0.82100
O3189       O  0.66336675  0.75142079  0.05071828    -0.79100
O3190       O  0.66246577  0.74864864  0.45087076    -0.77500
O3191       O  0.69914561  0.74790308  0.41383086    -0.79300
O3192       O  0.70052766  0.75087825  0.08702728    -0.80200
O3193       O  0.66243140  0.79983398  0.50002863    -0.81500
O3194       O  0.66294507  0.69985476  0.50079518    -0.81800
Eu3195     Eu  0.68798795  0.75003386  0.50093171     2.39200
O3196       O  0.71837139  0.78116088  0.46947852    -0.89300
O3197       O  0.71850698  0.71996427  0.03127431    -0.92900
C3198       C  0.67158407  0.67167136  0.50100781     1.01800
C3199       C  0.67123097  0.82794900  0.49818133     1.01600
C3200       C  0.67234540  0.75122066  0.07879554     1.01500
C3201       C  0.67107606  0.74766155  0.42267756     0.99400
H3202       H  0.70685603  0.79505519  0.04377174     0.29100
O3203       O  0.71936249  0.78211277  0.03101972    -1.01700
H3204       H  0.70605131  0.70579184  0.45751661     0.29200
O3205       O  0.71870098  0.71874440  0.47011612    -1.04200
O3206       O  0.80078077  0.83638542  0.50064625    -0.81500
O3207       O  0.79873329  0.66187261  0.49994756    -0.81000
O3208       O  0.75110270  0.80126887  0.08612075    -0.79400
O3209       O  0.74745748  0.79966966  0.41273987    -0.82800
O3210       O  0.75108545  0.70009916  0.41381914    -0.80600
O3211       O  0.75179510  0.70079513  0.08768180    -0.79300
O3212       O  0.83706317  0.75120306  0.04938720    -0.80800
O3213       O  0.83623220  0.74890175  0.44942325    -0.82700
O3214       O  0.80018542  0.75231704  0.08629579    -0.79500
O3215       O  0.79878634  0.74990592  0.41325843    -0.82200
O3216       O  0.75154302  0.83816070  0.04933611    -0.77900
O3217       O  0.74942073  0.66357029  0.05098420    -0.77900
O3218       O  0.75043696  0.66317088  0.45073358    -0.77600
O3219       O  0.74986291  0.83694700  0.44930086    -0.81100
O3220       O  0.83736171  0.79917671  0.50131624    -0.80500
O3221       O  0.83578575  0.69876136  0.49946507    -0.78800
Eu3222     Eu  0.74993691  0.81235521  0.49963979     2.39800
Eu3223     Eu  0.74955160  0.68796042  0.50125856     2.39600
Eu3224     Eu  0.75023735  0.75077805  0.06165859     2.38400
Eu3225     Eu  0.74918793  0.74995576  0.43881914     2.39900
Eu3226     Eu  0.81168794  0.74955757  0.49994567     2.39800
O3227       O  0.78004193  0.71878783  0.46962229    -0.93200
O3228       O  0.78140764  0.78136756  0.03052379    -0.92100
C3229       C  0.82882423  0.82736318  0.50151864     1.01900
C3230       C  0.82681395  0.67058506  0.49939857     1.00700
C3231       C  0.75164975  0.82944346  0.07737200     1.00000
C3232       C  0.74823223  0.82792933  0.42129828     1.02100
C3233       C  0.75132963  0.67201536  0.42263589     1.01000
C3234       C  0.75092499  0.67252537  0.07904350     0.99800
C3235       C  0.82822534  0.75224418  0.07745932     0.99900
C3236       C  0.82697756  0.74934246  0.42146833     1.02500
H3237       H  0.79352820  0.70682971  0.04372361     0.29900
O3238       O  0.78085481  0.71944177  0.03091316    -1.05400
H3239       H  0.79365672  0.79365791  0.45605765     0.31900
O3240       O  0.78096434  0.78103541  0.46893972    -1.08000
C3241       C  0.75098056  0.64851378  0.10296021    -0.00500
C3242       C  0.73061167  0.62380397  0.10020596    -0.12400
C3243       C  0.72923419  0.60081840  0.12243861     0.01700
C3244       C  0.74856080  0.60227609  0.14814441    -0.00600
C3245       C  0.76894816  0.62692392  0.15089353    -0.12400
C3246       C  0.77062330  0.64969167  0.12847970     0.01600
H3247       H  0.71532726  0.62270194  0.08081022     0.14600
H3248       H  0.78431781  0.62791024  0.17023166     0.14600
C3249       C  0.79412652  0.67268658  0.13135847     0.36200
C3250       C  0.70695656  0.57670929  0.11886036     0.36100
N3251       N  0.81341654  0.69060402  0.13392249    -0.44100
N3252       N  0.68899862  0.55751102  0.11586872    -0.44100
C3253       C  0.75178972  0.85330092  0.10142617    -0.00500
C3254       C  0.73896752  0.84617381  0.12991769    -0.12400
C3255       C  0.73801286  0.86770353  0.15346598     0.01700
C3256       C  0.75030836  0.89726884  0.14885825    -0.00600
C3257       C  0.76321690  0.90440205  0.12037961    -0.12400
C3258       C  0.76406784  0.88289658  0.09676746     0.01600
H3259       H  0.72907139  0.82373784  0.13373512     0.14600
H3260       H  0.77301831  0.92687913  0.11654675     0.14600
C3261       C  0.77843411  0.89182752  0.06845735     0.36200
C3262       C  0.72310950  0.85896592  0.18153401     0.36100
N3263       N  0.78992131  0.89918080  0.04584547    -0.44100
N3264       N  0.71112653  0.85184280  0.20395679    -0.44100
C3265       C  0.74804228  0.89902052  0.35319373    -0.00500
C3266       C  0.73073329  0.87233186  0.34866951    -0.12400
C3267       C  0.72992492  0.84915679  0.37066321     0.01700
C3268       C  0.74764114  0.85193739  0.39744505    -0.00600
C3269       C  0.76465490  0.87880479  0.40210622    -0.12400
C3270       C  0.76469173  0.90239561  0.38057873     0.01600
H3271       H  0.71708766  0.86992484  0.32819101     0.14600
H3272       H  0.77806155  0.88141224  0.42271534     0.14600
C3273       C  0.78232053  0.92957717  0.38715240     0.36200
C3274       C  0.70898651  0.82402405  0.36608309     0.36100
N3275       N  0.79615591  0.95148824  0.39259148    -0.44100
N3276       N  0.69174841  0.80429638  0.36234425    -0.44100
C3277       C  0.74939974  0.60276780  0.35272439    -0.00500
C3278       C  0.76689152  0.62936447  0.34852925    -0.12400
C3279       C  0.76872546  0.65172613  0.37136102     0.01700
C3280       C  0.75190325  0.64820475  0.39866000    -0.00600
C3281       C  0.73456863  0.62159723  0.40292626    -0.12400
C3282       C  0.73333715  0.59888499  0.38048080     0.01600
H3283       H  0.78003588  0.63220938  0.32775250     0.14600
H3284       H  0.72158981  0.61866344  0.42379860     0.14600
C3285       C  0.71489880  0.57218050  0.38656326     0.36200
C3286       C  0.78968618  0.67686263  0.36698688     0.36100
N3287       N  0.70023157  0.55080102  0.39184005    -0.44100
N3288       N  0.80690098  0.69662936  0.36342957    -0.44100
C3289       C  0.89610966  0.64875921  0.24728287    -0.00500
C3290       C  0.89982789  0.62368825  0.26672766    -0.12400
C3291       C  0.87774406  0.60071730  0.26853518     0.01700
C3292       C  0.85121841  0.60257843  0.25046290    -0.00600
C3293       C  0.84729389  0.62787264  0.23115526    -0.12400
C3294       C  0.86947307  0.65086674  0.22933094     0.01600
H3295       H  0.91972918  0.62250721  0.28124668     0.14600
H3296       H  0.82708283  0.62939089  0.21701468     0.14600
C3297       C  0.86475753  0.67566557  0.20812228     0.36200
C3298       C  0.88231887  0.57638943  0.29024121     0.36100
N3299       N  0.86083562  0.69541575  0.19105164    -0.44100
N3300       N  0.88620246  0.55709200  0.30781469    -0.44100
C3301       C  0.89662800  0.85200920  0.24920855    -0.00500
C3302       C  0.86661048  0.84383320  0.24141481    -0.12400
C3303       C  0.84335476  0.86561739  0.24016672     0.01700
C3304       C  0.84975732  0.89660590  0.24730211    -0.00600
C3305       C  0.87984196  0.90480828  0.25474862    -0.12400
C3306       C  0.90311045  0.88309446  0.25581519     0.01600
H3307       H  0.86122167  0.82028221  0.23570485     0.14600
H3308       H  0.88529480  0.92834962  0.26042899     0.14600
C3309       C  0.93309955  0.89364854  0.26459127     0.36200
C3310       C  0.81357146  0.85528638  0.23050266     0.36100
N3311       N  0.95712074  0.90211411  0.27157264    -0.44100
N3312       N  0.78985940  0.84672571  0.22264220    -0.44100
C3313       C  0.60200505  0.64868344  0.24625411    -0.00500
C3314       C  0.62847107  0.65298055  0.26369613    -0.12400
C3315       C  0.65108576  0.63051580  0.26489076     0.01700
C3316       C  0.64782142  0.60328201  0.24776557    -0.00600
C3317       C  0.62145891  0.59905942  0.23007182    -0.12400
C3318       C  0.59862834  0.62141266  0.22918697     0.01600
H3319       H  0.63104270  0.67356392  0.27732325     0.14600
H3320       H  0.61879006  0.57833303  0.21668604     0.14600
C3321       C  0.57236547  0.61612981  0.21002242     0.36200
C3322       C  0.67637876  0.63522544  0.28544206     0.36100
N3323       N  0.55120747  0.61206313  0.19480430    -0.44100
N3324       N  0.69646959  0.63894083  0.30212026    -0.44100
C3325       C  0.59950882  0.85368365  0.25551932    -0.00500
C3326       C  0.59635072  0.87920400  0.23646357    -0.12400
C3327       C  0.61890586  0.90185804  0.23524372     0.01700
C3328       C  0.64528097  0.89934896  0.25354656    -0.00600
C3329       C  0.64813720  0.87415883  0.27315504    -0.12400
C3330       C  0.62538873  0.85159912  0.27454655     0.01600
H3331       H  0.57660959  0.88097831  0.22170116     0.14600
H3332       H  0.66792984  0.87239570  0.28783945     0.14600
C3333       C  0.62836594  0.82748295  0.29678995     0.36200
C3334       C  0.61515070  0.92645674  0.21366689     0.36100
N3335       N  0.63060201  0.80838660  0.31487019    -0.44100
N3336       N  0.61208986  0.94601972  0.19622371    -0.44100
C3337       C  0.89764216  0.75025896  0.14671343    -0.00500
C3338       C  0.87116068  0.76768116  0.15121936    -0.12400
C3339       C  0.84851628  0.76913784  0.12883625     0.01700
C3340       C  0.85201587  0.75264340  0.10130405    -0.00600
C3341       C  0.87849954  0.73528728  0.09674829    -0.12400
C3342       C  0.90113248  0.73379953  0.11912081     0.01600
H3343       H  0.86839291  0.78072088  0.17210767     0.14600
H3344       H  0.88120781  0.72217748  0.07589006     0.14600
C3345       C  0.92691280  0.71405785  0.11355544     0.36200
C3346       C  0.82259239  0.78871942  0.13431033     0.36100
N3347       N  0.94737780  0.69806779  0.10882969    -0.44100
N3348       N  0.80192181  0.80450623  0.13878897    -0.44100
C3349       C  0.60146730  0.75424336  0.14786870    -0.00500
C3350       C  0.63156616  0.74701123  0.15598752    -0.12400
C3351       C  0.65492912  0.74582082  0.13427163     0.01700
C3352       C  0.64854871  0.75201394  0.10317900    -0.00600
C3353       C  0.61854590  0.75989180  0.09516851    -0.12400
C3354       C  0.59523885  0.76138544  0.11696496     0.01600
H3355       H  0.63694622  0.74153090  0.17947281     0.14600
H3356       H  0.61318910  0.76547375  0.07170229     0.14600
C3357       C  0.56559720  0.77139570  0.10670205     0.36200
C3358       C  0.68488033  0.73733232  0.14494376     0.36100
N3359       N  0.54205035  0.77961459  0.09815146    -0.44100
N3360       N  0.70876499  0.73052983  0.15378571    -0.44100
C3361       C  0.60048663  0.74870853  0.35371529    -0.00500
C3362       C  0.62819139  0.73358915  0.34805378    -0.12400
C3363       C  0.65117199  0.73226601  0.37023701     0.01700
C3364       C  0.64695693  0.74680246  0.39881745    -0.00600
C3365       C  0.61914255  0.76158057  0.40459654    -0.12400
C3366       C  0.59608902  0.76270418  0.38254210     0.01600
H3367       H  0.63174126  0.72222764  0.32633168     0.14600
H3368       H  0.61558680  0.77298575  0.42629596     0.14600
C3369       C  0.56877583  0.77956815  0.38992351     0.36200
C3370       C  0.67823500  0.71475406  0.36335588     0.36100
N3371       N  0.54703229  0.79317300  0.39615814    -0.44100
N3372       N  0.69979750  0.70057990  0.35777414    -0.44100
C3373       C  0.89623626  0.74566987  0.35152300    -0.00500
C3374       C  0.86902376  0.76167163  0.34629402    -0.12400
C3375       C  0.84617401  0.76321118  0.36855989     0.01700
C3376       C  0.85041586  0.74867392  0.39705176    -0.00600
C3377       C  0.87739182  0.73222610  0.40207369    -0.12400
C3378       C  0.89998560  0.73023728  0.37957911     0.01600
H3379       H  0.86577824  0.77357642  0.32487257     0.14600
H3380       H  0.88053885  0.72017068  0.42342986     0.14600
C3381       C  0.92589412  0.71082102  0.38542484     0.36200
C3382       C  0.81902101  0.78048939  0.36160701     0.36100
N3383       N  0.94637068  0.69493961  0.39028865    -0.44100
N3384       N  0.79725047  0.79419957  0.35581783    -0.44100
C3385       C  0.89794221  0.89810348  0.99714005    -0.00500
C3386       C  0.90382359  0.86973364  0.51454430    -0.12400
C3387       C  0.88157683  0.84675157  0.51604122     0.01700
C3388       C  0.85329585  0.85147519  0.99873444    -0.00600
C3389       C  0.84830194  0.87839063  0.98205400    -0.12400
C3390       C  0.87054897  0.90132051  0.98056170     0.01600
H3391       H  0.92555949  0.86614053  0.52573464     0.14600
H3392       H  0.82727532  0.88113953  0.96936479     0.14600
C3393       C  0.86549124  0.92675746  0.96022411     0.36200
C3394       C  0.88844929  0.81960823  0.53346481     0.36100
N3395       N  0.86151182  0.94681076  0.94352322    -0.44100
N3396       N  0.89415102  0.79805375  0.54761303    -0.44100
C3397       C  0.85143914  0.64776343  0.00198071    -0.00500
C3398       C  0.87942043  0.65418873  0.01632274    -0.12400
C3399       C  0.90301208  0.63263362  0.01676070     0.01700
C3400       C  0.89872376  0.60375053  0.00277767    -0.00600
C3401       C  0.87015712  0.59634761  0.48589211    -0.12400
C3402       C  0.84692246  0.61821213  0.48453292     0.01600
H3403       H  0.88291375  0.67617634  0.02730387     0.14600
H3404       H  0.86729344  0.57486804  0.47378743     0.14600
C3405       C  0.82022077  0.61125183  0.46650914     0.36200
C3406       C  0.93106288  0.64071416  0.03209264     0.36100
N3407       N  0.79891908  0.60556607  0.45200536    -0.44100
N3408       N  0.95359472  0.64725255  0.04419711    -0.44100
C3409       C  0.60102212  0.89767279  0.99927608    -0.00500
C3410       C  0.63157040  0.90661772  0.99509007    -0.12400
C3411       C  0.65524474  0.88529225  0.99482828     0.01700
C3412       C  0.64872701  0.85378986  0.99890430    -0.00600
C3413       C  0.62492685  0.85140215  0.52051344    -0.12400
C3414       C  0.60225755  0.87388032  0.52151292     0.01600
H3415       H  0.63722622  0.93055617  0.99183868     0.14600
H3416       H  0.62565074  0.83403791  0.53813195     0.14600
C3417       C  0.58086830  0.87361768  0.54657785     0.36200
C3418       C  0.68575550  0.89688189  0.99004049     0.36100
N3419       N  0.56387984  0.87343038  0.56678522    -0.44100
N3420       N  0.71009848  0.90642948  0.98624306    -0.44100
C3421       C  0.64677698  0.64930533  0.00093198    -0.00500
C3422       C  0.65272598  0.62157984  0.01592393    -0.12400
C3423       C  0.63116608  0.59794200  0.01645143     0.01700
C3424       C  0.60291504  0.60168547  0.00143071    -0.00600
C3425       C  0.59768825  0.62849485  0.48640003    -0.12400
C3426       C  0.62001370  0.65129285  0.48480209     0.01600
H3427       H  0.67422444  0.61846752  0.02770436     0.14600
H3428       H  0.57680794  0.63118776  0.47351703     0.14600
C3429       C  0.61456344  0.67693424  0.46484258     0.36200
C3430       C  0.63841178  0.57070081  0.03353687     0.36100
N3431       N  0.60992289  0.69713868  0.44850888    -0.44100
N3432       N  0.64447250  0.54901559  0.04732920    -0.44100
C3433       C  0.89560760  0.50102274  0.39978893    -0.00500
C3434       C  0.86946358  0.51911373  0.40416405    -0.12400
C3435       C  0.84619934  0.51994611  0.38221705     0.01700
C3436       C  0.84910027  0.50265826  0.35504467    -0.00600
C3437       C  0.87927752  0.98831198  0.34700912    -0.12400
C3438       C  0.90238065  0.98757759  0.36901342     0.01600
H3439       H  0.86733466  0.53288593  0.42465691     0.14600
H3440       H  0.88236857  0.97569865  0.32591135     0.14600
C3441       C  0.92885333  0.96899882  0.36278517     0.36200
C3442       C  0.82008208  0.53926214  0.38786268     0.36100
N3443       N  0.94993956  0.95393488  0.35777927    -0.44100
N3444       N  0.79911688  0.55463119  0.39247889    -0.44100
C3445       C  0.64682360  0.50016101  0.35215319    -0.00500
C3446       C  0.62134534  0.01679546  0.34770004    -0.12400
C3447       C  0.59833488  0.01769881  0.36979018     0.01700
C3448       C  0.60028340  0.50166302  0.39708387    -0.00600
C3449       C  0.62860856  0.48813922  0.40327485    -0.12400
C3450       C  0.65163462  0.48700262  0.38120726     0.01600
H3451       H  0.61778576  0.02830113  0.32610785     0.14600
H3452       H  0.63260295  0.47765874  0.42529841     0.14600
C3453       C  0.67933735  0.47090992  0.38876970     0.36200
C3454       C  0.57096491  0.03451197  0.36267382     0.36100
N3455       N  0.70142236  0.45789852  0.39493672    -0.44100
N3456       N  0.54918765  0.04803524  0.35652938    -0.44100
C3457       C  0.60147706  0.50174650  0.10231926    -0.00500
C3458       C  0.62865993  0.98600881  0.09717661    -0.12400
C3459       C  0.65168515  0.98455596  0.11919052     0.01700
C3460       C  0.64818767  0.50017568  0.14701582    -0.00600
C3461       C  0.62168532  0.51757599  0.15168352    -0.12400
C3462       C  0.59847046  0.51850774  0.12978241     0.01600
H3463       H  0.63250013  0.97548217  0.07509026     0.14600
H3464       H  0.61920557  0.53082781  0.17247370     0.14600
C3465       C  0.57229892  0.53756972  0.13589545     0.36200
C3466       C  0.67893087  0.96756029  0.11179619     0.36100
N3467       N  0.55140540  0.55285457  0.14106553    -0.44100
N3468       N  0.70056116  0.95365070  0.10583737    -0.44100
C3469       C  0.85213289  0.50046842  0.14955798    -0.00500
C3470       C  0.84829590  0.48202906  0.12358279    -0.12400
C3471       C  0.87029676  0.48144750  0.10039374     0.01700
C3472       C  0.89652434  0.50018864  0.10260230    -0.00600
C3473       C  0.89861836  0.01969344  0.12575476    -0.12400
C3474       C  0.87629269  0.02018012  0.14861619     0.01600
H3475       H  0.82837574  0.46737843  0.12176445     0.14600
H3476       H  0.91741163  0.03584891  0.12672874     0.14600
C3477       C  0.87869313  0.04309279  0.17224469     0.36200
C3478       C  0.86626891  0.45994258  0.07567295     0.36100
N3479       N  0.88069123  0.06163171  0.19099940    -0.44100
N3480       N  0.86301653  0.44238292  0.05616529    -0.44100
C3481       C  0.50041998  0.64538340  0.35032260    -0.00500
C3482       C  0.50866760  0.65433570  0.38003700    -0.12400
C3483       C  0.50789163  0.63379894  0.40443584     0.01700
C3484       C  0.49964513  0.60288431  0.39931667    -0.00600
C3485       C  0.98909899  0.59317762  0.36853524    -0.12400
C3486       C  0.98917036  0.61392147  0.34425099     0.01600
H3487       H  0.51537692  0.67781104  0.38451762     0.14600
H3488       H  0.98205158  0.56977528  0.36417383     0.14600
C3489       C  0.97929963  0.60255698  0.31493631     0.36200
C3490       C  0.51518741  0.64567300  0.43430919     0.36100
N3491       N  0.97137467  0.59255709  0.29181208    -0.44100
N3492       N  0.52059135  0.65566055  0.45815628    -0.44100
C3493       C  0.49833211  0.89707935  0.39857071    -0.00500
C3494       C  0.01103294  0.90343077  0.36975616    -0.12400
C3495       C  0.01176305  0.88126555  0.34666547     0.01700
C3496       C  0.49951728  0.85166267  0.35219164    -0.00600
C3497       C  0.48606298  0.84560344  0.38062841    -0.12400
C3498       C  0.48480093  0.86803477  0.40346342     0.01600
H3499       H  0.02033676  0.92596387  0.36514284     0.14600
H3500       H  0.47554552  0.82350758  0.38474530     0.14600
C3501       C  0.46768111  0.86108088  0.43075524     0.36200
C3502       C  0.02565692  0.88969272  0.31798015     0.36100
N3503       N  0.45356584  0.85536730  0.45232600    -0.44100
N3504       N  0.03684888  0.89660311  0.29508709    -0.44100
C3505       C  0.49730048  0.85131071  0.14761967    -0.00500
C3506       C  0.01253092  0.87942314  0.15347693    -0.12400
C3507       C  0.01440525  0.90238702  0.13137804     0.01700
C3508       C  0.50007348  0.89763636  0.10261661    -0.00600
C3509       C  0.48350672  0.87060918  0.09740408    -0.12400
C3510       C  0.48189361  0.84758753  0.11950876     0.01600
H3511       H  0.02533840  0.88196192  0.17447797     0.14600
H3512       H  0.47114325  0.86772412  0.07618330     0.14600
C3513       C  0.46315020  0.82114449  0.11303807     0.36200
C3514       C  0.03438646  0.92804199  0.13723708     0.36100
N3515       N  0.44795884  0.80018354  0.10750691    -0.44100
N3516       N  0.05069546  0.94830502  0.14213002    -0.44100
C3517       C  0.50216578  0.60406337  0.10018632    -0.00500
C3518       C  0.98403554  0.59962522  0.12685137    -0.12400
C3519       C  0.98278176  0.62171578  0.14978379     0.01700
C3520       C  0.50025097  0.64860863  0.14672280    -0.00600
C3521       C  0.51800821  0.65337203  0.12048484    -0.12400
C3522       C  0.51956854  0.63117113  0.09752597     0.01600
H3523       H  0.97057993  0.57889826  0.12918252     0.14600
H3524       H  0.53158518  0.67404451  0.11842138     0.14600
C3525       C  0.54091142  0.63587211  0.07284549     0.36200
C3526       C  0.96372831  0.61570271  0.17600274     0.36100
N3527       N  0.55847621  0.63976925  0.05351811    -0.44100
N3528       N  0.94865614  0.61070070  0.19709486    -0.44100
O3529       O  0.50057416  0.54946979  0.58827908    -0.80500
O3530       O  0.49872808  0.54999744  0.91343666    -0.82100
O3531       O  0.55038279  0.58689425  0.50198949    -0.79100
O3532       O  0.94956695  0.58734177  0.50221503    -0.77500
O3533       O  0.91276579  0.55021991  0.50084953    -0.79300
O3534       O  0.58698143  0.54971920  0.50283585    -0.80200
O3535       O  0.49961831  0.58698474  0.95011060    -0.81500
O3536       O  0.50271694  0.58655502  0.55162159    -0.81800
Eu3537     Eu  0.49998431  0.56218188  0.50138018     2.39200
O3538       O  0.96861395  0.53167008  0.96963682    -0.89300
O3539       O  0.53057252  0.53067481  0.53178042    -0.92900
C3540       C  0.50234438  0.57758964  0.57959907     1.01800
C3541       C  0.49900485  0.57824813  0.92211067     1.01600
C3542       C  0.57839869  0.57789679  0.50294408     1.01500
C3543       C  0.92147356  0.57842749  0.50180800     0.99400
H3544       H  0.54398007  0.54361841  0.95589696     0.29100
O3545       O  0.53126834  0.53088626  0.96865033    -1.01700
H3546       H  0.95594640  0.54395260  0.54471319     0.29200
O3547       O  0.96850130  0.53123289  0.53179387    -1.04200
O3548       O  0.50128680  0.94949961  0.91392694    -0.81500
O3549       O  0.49992674  0.95096278  0.58792520    -0.81000
O3550       O  0.58607622  0.50028109  0.94910950    -0.79400
O3551       O  0.91220771  0.50264967  0.95103908    -0.82800
O3552       O  0.91246002  0.49979752  0.55045470    -0.80600
O3553       O  0.58620228  0.50048860  0.55113162    -0.79300
O3554       O  0.54993847  0.91242465  0.50034877    -0.80800
O3555       O  0.95021906  0.91265688  0.50048680    -0.82700
O3556       O  0.58726819  0.94910787  0.49871972    -0.79500
O3557       O  0.91360488  0.94976230  0.49935572    -0.82200
O3558       O  0.54903802  0.50040628  0.91244216    -0.77900
O3559       O  0.54924796  0.50069302  0.58794720    -0.77900
O3560       O  0.94926176  0.49910556  0.58720813    -0.77600
O3561       O  0.94904144  0.50082555  0.91414428    -0.81100
O3562       O  0.50077990  0.91291014  0.95113552    -0.80500
O3563       O  0.49963639  0.91368412  0.55130558    -0.78800
Eu3564     Eu  0.49967328  0.49974399  0.93832576     2.39800
Eu3565     Eu  0.49929155  0.49978751  0.56247962     2.39600
Eu3566     Eu  0.56154338  0.49987292  0.50063254     2.38400
Eu3567     Eu  0.93769175  0.50002611  0.50071252     2.39900
Eu3568     Eu  0.50010287  0.93798553  0.50054570     2.39800
O3569       O  0.96898522  0.96942772  0.53114741    -0.93200
O3570       O  0.53036057  0.96933974  0.96957561    -0.92100
C3571       C  0.50119487  0.92137551  0.92301435     1.01900
C3572       C  0.49995406  0.92276153  0.57939176     1.00700
C3573       C  0.57711842  0.50078661  0.92103230     1.00000
C3574       C  0.92097159  0.50185110  0.92293581     1.02100
C3575       C  0.92114956  0.49917212  0.57849849     1.01000
C3576       C  0.57739968  0.50091175  0.57927584     0.99800
C3577       C  0.57807997  0.92105456  0.49937192     0.99900
C3578       C  0.92216408  0.92154375  0.49972276     0.99300
H3579       H  0.54378040  0.95604424  0.54447406     0.29900
O3580       O  0.53115971  0.96875843  0.53170437    -1.05400
H3581       H  0.95611387  0.95635666  0.95651616     0.31900
O3582       O  0.96879352  0.96903121  0.96936139    -1.08000
O3583       O  0.50010728  0.69988623  0.66310470    -0.80500
O3584       O  0.50013937  0.69805841  0.83533648    -0.82100
O3585       O  0.54960803  0.66316751  0.74893746    -0.79100
O3586       O  0.94852618  0.66437299  0.74851558    -0.77500
O3587       O  0.91194177  0.70156223  0.74802390    -0.79300
O3588       O  0.58711195  0.69953782  0.75004550    -0.80200
O3589       O  0.49870168  0.66138883  0.79827170    -0.81500
O3590       O  0.49906438  0.66296772  0.69996516    -0.81800
Eu3591     Eu  0.49917126  0.68808816  0.74963474     2.39200
O3592       O  0.96833150  0.71958469  0.78046406    -0.89300
O3593       O  0.53064310  0.71865420  0.71892259    -0.92900
C3594       C  0.49948686  0.67172158  0.67196152     1.01800
C3595       C  0.49925663  0.66985439  0.82637163     1.01600
C3596       C  0.57788668  0.67153809  0.74927283     1.01500
C3597       C  0.92051251  0.67337278  0.74780644     0.99400
H3598       H  0.54340747  0.70529924  0.79373935     0.29100
O3599       O  0.53074507  0.71816774  0.78117052    -1.01700
H3600       H  0.95545399  0.70709353  0.70562074     0.29200
O3601       O  0.96823516  0.71965281  0.71848379    -1.04200
O3602       O  0.49990095  0.79994706  0.83740517    -0.81500
O3603       O  0.49928164  0.80009786  0.66325513    -0.81000
O3604       O  0.58718086  0.75029273  0.80015674    -0.79400
O3605       O  0.91279431  0.74957417  0.79964848    -0.82800
O3606       O  0.91243538  0.75202065  0.69986571    -0.80600
O3607       O  0.58588720  0.74869968  0.69961402    -0.79300
O3608       O  0.55209000  0.83545517  0.75188492    -0.80800
O3609       O  0.95163284  0.83816255  0.74911671    -0.82700
O3610       O  0.58856655  0.79819165  0.75214445    -0.79500
O3611       O  0.91395508  0.80195975  0.74898141    -0.82200
O3612       O  0.55042544  0.75185753  0.83718811    -0.77900
O3613       O  0.54913992  0.74989517  0.66296510    -0.77900
O3614       O  0.94952222  0.75141721  0.66323951    -0.77600
O3615       O  0.94946776  0.74775388  0.83664908    -0.81100
O3616       O  0.50195768  0.83700085  0.80066503    -0.80500
O3617       O  0.50104151  0.83700644  0.70022602    -0.78800
Eu3618     Eu  0.50006526  0.74945008  0.81223886     2.39800
Eu3619     Eu  0.49985948  0.75018017  0.68854946     2.39600
Eu3620     Eu  0.56179314  0.74919739  0.75023455     2.38400
Eu3621     Eu  0.93793411  0.75118485  0.74963537     2.39900
Eu3622     Eu  0.50110773  0.81191588  0.75054609     2.39800
O3623       O  0.96936184  0.78193398  0.71902771    -0.93200
O3624       O  0.53119517  0.78023658  0.78129839    -0.92100
C3625       C  0.50131903  0.82816582  0.82872000     1.01900
C3626       C  0.49979264  0.82825479  0.67207930     1.00700
C3627       C  0.57852745  0.75184894  0.82826900     1.00000
C3628       C  0.92142038  0.74802778  0.82772985     1.02100
C3629       C  0.92139569  0.75170112  0.67182468     1.01000
C3630       C  0.57717207  0.74904551  0.67149652     0.99800
C3631       C  0.58009450  0.82637387  0.75259627     0.99900
C3632       C  0.92337479  0.82997922  0.74884906     1.02500
H3633       H  0.54456885  0.79361831  0.70658063     0.29900
O3634       O  0.53168548  0.78092447  0.71920819    -1.05400
H3635       H  0.95656079  0.79429109  0.79366816     0.31900
O3636       O  0.96926925  0.78150962  0.78096902    -1.08000
O3637       O  0.83692605  0.99982405  0.70076158    -0.80500
O3638       O  0.66407157  0.99926292  0.69949249    -0.82100
O3639       O  0.75091589  0.94978657  0.66347412    -0.79100
O3640       O  0.75049497  0.55067159  0.66534679    -0.77500
O3641       O  0.74997851  0.58808181  0.70180035    -0.79300
O3642       O  0.74958035  0.91269376  0.70019040    -0.80200
O3643       O  0.70115458  0.99890762  0.66282773    -0.81500
O3644       O  0.80039420  0.99917246  0.66378201    -0.81800
Eu3645     Eu  0.75033777  0.99961782  0.68896731     2.39200
O3646       O  0.71935166  0.53119759  0.71980824    -0.89300
O3647       O  0.78130754  0.96892160  0.71975411    -0.92900
C3648       C  0.82845218  0.99947896  0.67262687     1.01800
C3649       C  0.67303412  0.99895320  0.67137053     1.01600
C3650       C  0.75013412  0.92163647  0.67214489     1.01500
C3651       C  0.75016227  0.57900813  0.67379213     0.99400
H3652       H  0.70666130  0.95548908  0.70689185     0.29100
O3653       O  0.71929108  0.96833742  0.71962971    -1.01700
H3654       H  0.79387301  0.54397073  0.70787316     0.29200
O3655       O  0.78110781  0.53123512  0.72058101    -1.04200
O3656       O  0.66375217  0.99884618  0.80120487    -0.81500
O3657       O  0.83649552  0.00252497  0.80077344    -0.81000
O3658       O  0.70030281  0.91253439  0.75151725    -0.79400
O3659       O  0.69997068  0.58730232  0.75087612    -0.82800
O3660       O  0.79979682  0.58792124  0.75102809    -0.80600
O3661       O  0.80100913  0.91339374  0.74817061    -0.79300
O3662       O  0.75115012  0.95018612  0.83726514    -0.80800
O3663       O  0.74771206  0.55021253  0.83842814    -0.82700
O3664       O  0.75060837  0.91279683  0.80071158    -0.79500
O3665       O  0.74912402  0.58713408  0.80167169    -0.82200
O3666       O  0.66331697  0.94933046  0.75110839    -0.77900
O3667       O  0.83746180  0.95088090  0.74929883    -0.77900
O3668       O  0.83654594  0.55092076  0.75139918    -0.77600
O3669       O  0.66303059  0.55031828  0.74962185    -0.81100
O3670       O  0.70071115  0.99894711  0.83787738    -0.80500
O3671       O  0.79964611  0.00384683  0.83767201    -0.78800
Eu3672     Eu  0.68813576  0.99934399  0.75044698     2.39800
Eu3673     Eu  0.81165822  0.00053776  0.75061864     2.39600
Eu3674     Eu  0.75048488  0.93767268  0.75052959     2.38400
Eu3675     Eu  0.74992234  0.56232634  0.75130398     2.39900
Eu3676     Eu  0.75012280  0.00000429  0.81201201     2.39800
O3677       O  0.78082691  0.53192815  0.78265203    -0.93200
O3678       O  0.71928547  0.96861059  0.78132519    -0.92100
C3679       C  0.67262526  0.99864640  0.82930992     1.01900
C3680       C  0.82770041  0.00413071  0.82883573     1.00700
C3681       C  0.67218383  0.92125661  0.75133101     1.00000
C3682       C  0.67188373  0.57851985  0.75036127     1.02100
C3683       C  0.82785363  0.57906869  0.75110310     1.01000
C3684       C  0.82901498  0.92261190  0.74796240     0.99800
C3685       C  0.75108513  0.92196003  0.82871827     0.99900
C3686       C  0.74786939  0.57831416  0.82973187     1.02500
H3687       H  0.79452077  0.95632725  0.79438478     0.29900
O3688       O  0.78154661  0.96877017  0.78168812    -1.05400
H3689       H  0.70548020  0.54408998  0.79422656     0.31900
O3690       O  0.71843262  0.53137906  0.78169370    -1.08000
O3691       O  0.69873928  0.66427052  0.00135119    -0.80500
O3692       O  0.70093233  0.83801692  0.99950300    -0.82100
O3693       O  0.66405703  0.74937148  0.55161423    -0.79100
O3694       O  0.66348424  0.75256179  0.94930560    -0.77500
O3695       O  0.70069533  0.75140253  0.91274697    -0.79300
O3696       O  0.70113086  0.74988729  0.58794400    -0.80200
O3697       O  0.66369725  0.80157408  0.99938152    -0.81500
O3698       O  0.66220960  0.70150037  0.00029977    -0.81800
Eu3699     Eu  0.68799578  0.75126511  0.00013228     2.39200
O3700       O  0.71916803  0.78196432  0.96916004    -0.89300
O3701       O  0.71878056  0.71922892  0.53215429    -0.92900
C3702       C  0.67072291  0.67328159  0.00081173     1.01800
C3703       C  0.67271651  0.82968827  0.99920240     1.01600
C3704       C  0.67299630  0.74941614  0.57966464     1.01500
C3705       C  0.67257699  0.75210783  0.92122267     0.99400
H3706       H  0.70640470  0.79474234  0.54411354     0.29100
O3707       O  0.71898919  0.78184018  0.53139450    -1.01700
H3708       H  0.70573554  0.70711522  0.95680790     0.29200
O3709       O  0.71863818  0.71971948  0.96950783    -1.04200
O3710       O  0.80114367  0.83711951  0.99914229    -0.81500
O3711       O  0.79938814  0.66329826  0.00099325    -0.81000
O3712       O  0.75171659  0.80138335  0.58635210    -0.79400
O3713       O  0.74899357  0.80059661  0.91354669    -0.82800
O3714       O  0.74879634  0.70039945  0.91417731    -0.80600
O3715       O  0.75187963  0.70166200  0.58868303    -0.79300
O3716       O  0.83679516  0.75098470  0.55028611    -0.80800
O3717       O  0.83654260  0.74901010  0.94885648    -0.82700
O3718       O  0.79992935  0.75267229  0.58708593    -0.79500
O3719       O  0.79926542  0.75051341  0.91254848    -0.82200
O3720       O  0.75181477  0.83825141  0.54937228    -0.77900
O3721       O  0.75084884  0.66416977  0.55234415    -0.77900
O3722       O  0.74863945  0.66315085  0.95068013    -0.77600
O3723       O  0.74983690  0.83793136  0.95007927    -0.81100
O3724       O  0.83743387  0.79964811  0.99944705    -0.80500
O3725       O  0.83672272  0.69987516  0.00105837    -0.78800
Eu3726     Eu  0.75071213  0.81257214  0.99978540     2.39800
Eu3727     Eu  0.74929279  0.68852874  0.00060635     2.39600
Eu3728     Eu  0.75034799  0.75084925  0.56197574     2.38400
Eu3729     Eu  0.74988438  0.75056085  0.93863517     2.39900
Eu3730     Eu  0.81186848  0.74993497  0.99945820     2.39800
O3731       O  0.78057350  0.71879766  0.96895398    -0.93200
O3732       O  0.78080547  0.78116257  0.53022507    -0.92100
C3733       C  0.82909018  0.82788876  0.99928857     1.01900
C3734       C  0.82761331  0.67179707  0.00125172     1.00700
C3735       C  0.75232438  0.82949793  0.57745425     1.00000
C3736       C  0.74903556  0.82883322  0.92210240     1.02100
C3737       C  0.74865477  0.67221793  0.92268973     1.01000
C3738       C  0.75187672  0.67334578  0.58039885     0.99800
C3739       C  0.82797878  0.75245381  0.57840666     0.99900
C3740       C  0.82742759  0.74977430  0.92084877     1.02500
H3741       H  0.79403051  0.70647068  0.54441027     0.29900
O3742       O  0.78116844  0.71897853  0.53167279    -1.05400
H3743       H  0.79419537  0.79412984  0.95579680     0.31900
O3744       O  0.78150564  0.78153811  0.96871331    -1.08000
C3745       C  0.75243400  0.64953495  0.60465357    -0.00500
C3746       C  0.73935831  0.62086231  0.59830453    -0.12400
C3747       C  0.73829143  0.59772513  0.62026912     0.01700
C3748       C  0.75045719  0.60291695  0.64968262    -0.00600
C3749       C  0.76369562  0.63155601  0.65609249    -0.12400
C3750       C  0.76514021  0.65462065  0.63394229     0.01600
H3751       H  0.72934924  0.61655767  0.57610640     0.14600
H3752       H  0.77372833  0.63573499  0.67831289     0.14600
C3753       C  0.78124391  0.68247102  0.64162832     0.36200
C3754       C  0.72366358  0.56926802  0.61201211     0.36100
N3755       N  0.79443802  0.70452675  0.64801957    -0.44100
N3756       N  0.71201434  0.54646756  0.60526977    -0.44100
C3757       C  0.75258181  0.85329868  0.60144433    -0.00500
C3758       C  0.73379906  0.84914850  0.62704921    -0.12400
C3759       C  0.73213045  0.87134098  0.64998809     0.01700
C3760       C  0.75027614  0.89797340  0.64802534    -0.00600
C3761       C  0.76907389  0.90218304  0.62240710    -0.12400
C3762       C  0.77034874  0.88020416  0.59916950     0.01600
H3763       H  0.71954710  0.82889856  0.62864813     0.14600
H3764       H  0.78314810  0.92255643  0.62072809     0.14600
C3765       C  0.79079173  0.88547842  0.57386424     0.36200
C3766       C  0.71007057  0.86712070  0.67409892     0.36100
N3767       N  0.80724093  0.88997084  0.55370487    -0.44100
N3768       N  0.69204794  0.86374357  0.69309670    -0.44100
C3769       C  0.75110023  0.89834154  0.85279374    -0.00500
C3770       C  0.73428665  0.87140402  0.84805407    -0.12400
C3771       C  0.73295872  0.84862649  0.87034937     0.01700
C3772       C  0.74880467  0.85256938  0.89812941    -0.00600
C3773       C  0.76551876  0.87958061  0.90292652    -0.12400
C3774       C  0.76705121  0.90225266  0.88052561     0.01600
H3775       H  0.72167447  0.86832949  0.82700625     0.14600
H3776       H  0.77818432  0.88263492  0.92394590     0.14600
C3777       C  0.78650608  0.92840795  0.88602375     0.36200
C3778       C  0.71429551  0.82201826  0.86440436     0.36100
N3779       N  0.80228527  0.94920011  0.89043846    -0.44100
N3780       N  0.69931395  0.80076025  0.85948612    -0.44100
C3781       C  0.74698474  0.60222784  0.85361249    -0.00500
C3782       C  0.76200743  0.63002307  0.84805928    -0.12400
C3783       C  0.76271091  0.65313989  0.87004466     0.01700
C3784       C  0.74829723  0.64858453  0.89854876    -0.00600
C3785       C  0.73293901  0.62092623  0.90402048    -0.12400
C3786       C  0.73185928  0.59794430  0.88181849     0.01600
H3787       H  0.77371417  0.63358740  0.82654960     0.14600
H3788       H  0.72120021  0.61745832  0.92553282     0.14600
C3789       C  0.71392673  0.57092719  0.88821975     0.36200
C3790       C  0.77916504  0.68087961  0.86286028     0.36100
N3791       N  0.69937967  0.54944067  0.89344238    -0.44100
N3792       N  0.79219588  0.70315891  0.85701294    -0.44100
C3793       C  0.89661679  0.64943875  0.74747381    -0.00500
C3794       C  0.90205122  0.62232990  0.76355725    -0.12400
C3795       C  0.88018983  0.59913800  0.76500160     0.01700
C3796       C  0.85180850  0.60294289  0.75027861    -0.00600
C3797       C  0.84638023  0.62999031  0.73389647    -0.12400
C3798       C  0.86856030  0.65302255  0.73207699     0.01600
H3799       H  0.92331076  0.61951119  0.77570302     0.14600
H3800       H  0.82497965  0.63287352  0.72188094     0.14600
C3801       C  0.86241312  0.67928340  0.71312222     0.36200
C3802       C  0.88733322  0.57227391  0.78271644     0.36100
N3803       N  0.85744884  0.70016136  0.69774178    -0.44100
N3804       N  0.89335091  0.55082702  0.79688849    -0.44100
C3805       C  0.89995812  0.85441002  0.74809526    -0.00500
C3806       C  0.87245057  0.84876073  0.73266225    -0.12400
C3807       C  0.84957576  0.87099958  0.73123759     0.01700
C3808       C  0.85336776  0.89914376  0.74670950    -0.00600
C3809       C  0.88115950  0.90510405  0.76146578    -0.12400
C3810       C  0.90448711  0.88333022  0.76197301     0.01600
H3811       H  0.86914467  0.82718517  0.72084108     0.14600
H3812       H  0.88459079  0.92678473  0.77305524     0.14600
C3813       C  0.93247252  0.89129367  0.77744906     0.36200
C3814       C  0.82354682  0.86516479  0.71192224     0.36100
N3815       N  0.95494698  0.89791792  0.78960339    -0.44100
N3816       N  0.80298743  0.86068440  0.69601164    -0.44100
C3817       C  0.60162092  0.64741979  0.74922095    -0.00500
C3818       C  0.62881769  0.65264983  0.76533786    -0.12400
C3819       C  0.65174909  0.63045982  0.76645920     0.01700
C3820       C  0.64805234  0.60252552  0.75051795    -0.00600
C3821       C  0.62087928  0.59731128  0.73440456    -0.12400
C3822       C  0.59773537  0.61930404  0.73372172     0.01600
H3823       H  0.63185932  0.67387661  0.77784415     0.14600
H3824       H  0.61778048  0.57602798  0.72202075     0.14600
C3825       C  0.57055649  0.61258744  0.71639069     0.36200
C3826       C  0.67795883  0.63637400  0.78554307     0.36100
N3827       N  0.54865376  0.60721058  0.70269999    -0.44100
N3828       N  0.69879310  0.64110103  0.80102534    -0.44100
C3829       C  0.60405272  0.85024529  0.75302176    -0.00500
C3830       C  0.59842807  0.87762937  0.73739931    -0.12400
C3831       C  0.62013184  0.90101534  0.73649743     0.01700
C3832       C  0.64838700  0.89724371  0.75149936    -0.00600
C3833       C  0.65407789  0.86986545  0.76713582    -0.12400
C3834       C  0.63224907  0.84650664  0.76820426     0.01600
H3835       H  0.57704348  0.88066294  0.72538719     0.14600
H3836       H  0.67550637  0.86689827  0.77908716     0.14600
C3837       C  0.63917532  0.81973348  0.78613227     0.36200
C3838       C  0.61294426  0.92809644  0.71912400     0.36100
N3839       N  0.64528326  0.79860468  0.80073461    -0.44100
N3840       N  0.60692110  0.94971774  0.70521672    -0.44100
C3841       C  0.89771008  0.75168132  0.64774760    -0.00500
C3842       C  0.87011316  0.76695054  0.65317359    -0.12400
C3843       C  0.84718865  0.76780879  0.63102195     0.01700
C3844       C  0.85172961  0.75319996  0.60248599    -0.00600
C3845       C  0.87935001  0.73791445  0.59713909    -0.12400
C3846       C  0.90205766  0.73672101  0.61946023     0.01600
H3847       H  0.86652060  0.77858341  0.67475247     0.14600
H3848       H  0.88291956  0.72603163  0.57569772     0.14600
C3849       C  0.92884529  0.71856315  0.61325001     0.36200
C3850       C  0.81966477  0.78445023  0.63824560     0.36100
N3851       N  0.95026274  0.70390456  0.60844440    -0.44100
N3852       N  0.79771761  0.79774455  0.64445295    -0.44100
C3853       C  0.60123404  0.74869163  0.64754557    -0.00500
C3854       C  0.63158360  0.75407024  0.65633016    -0.12400
C3855       C  0.65533832  0.75425385  0.63507377     0.01700
C3856       C  0.64906453  0.74889720  0.60379819    -0.00600
C3857       C  0.61873605  0.74320740  0.59507437    -0.12400
C3858       C  0.59496533  0.74318810  0.61630744     0.01600
H3859       H  0.63696576  0.75852027  0.68005642     0.14600
H3860       H  0.61331966  0.73879162  0.57135242     0.14600
C3861       C  0.56458821  0.73746666  0.60486492     0.36200
C3862       C  0.68562220  0.76045118  0.64649744     0.36100
N3863       N  0.54033911  0.73310889  0.59540640    -0.44100
N3864       N  0.70974864  0.76534877  0.65600843    -0.44100
C3865       C  0.60274708  0.75313913  0.85190147    -0.00500
C3866       C  0.62925394  0.73564700  0.84767630    -0.12400
C3867       C  0.65226018  0.73504294  0.86979277     0.01700
C3868       C  0.64909786  0.75237965  0.89689653    -0.00600
C3869       C  0.62298008  0.77045330  0.90079135    -0.12400
C3870       C  0.60000355  0.77111637  0.87861906     0.01600
H3871       H  0.63169695  0.72175098  0.82729974     0.14600
H3872       H  0.62061181  0.78435037  0.92117390     0.14600
C3873       C  0.57438892  0.79118270  0.88362272     0.36200
C3874       C  0.67817025  0.71534930  0.86458159     0.36100
N3875       N  0.55403877  0.80740899  0.88799629    -0.44100
N3876       N  0.69888693  0.69954851  0.86035002    -0.44100
C3877       C  0.89723004  0.74729238  0.85137842    -0.00500
C3878       C  0.87049734  0.76420174  0.84659326    -0.12400
C3879       C  0.84739047  0.76521582  0.86862722     0.01700
C3880       C  0.85099716  0.74938633  0.89652373    -0.00600
C3881       C  0.87752735  0.73206921  0.90106449    -0.12400
C3882       C  0.90023280  0.73041270  0.87863691     0.01600
H3883       H  0.86778945  0.77709514  0.82566755     0.14600
H3884       H  0.88013122  0.71897648  0.92187709     0.14600
C3885       C  0.92521815  0.70954558  0.88334837     0.36200
C3886       C  0.82067895  0.78330520  0.86205947     0.36100
N3887       N  0.94489205  0.69239585  0.88709172    -0.44100
N3888       N  0.79931830  0.79770308  0.85641128    -0.44100
C3889       C  0.89809064  0.89759554  0.49970781    -0.00500
C3890       C  0.90318507  0.87093505  0.01328017    -0.12400
C3891       C  0.88145414  0.84754585  0.01388796     0.01700
C3892       C  0.85291905  0.85120260  0.50193800    -0.00600
C3893       C  0.84720752  0.87902972  0.48715014    -0.12400
C3894       C  0.86932706  0.90205908  0.48583637     0.01600
H3895       H  0.92430452  0.86802284  0.02577821     0.14600
H3896       H  0.82547445  0.88264820  0.47595871     0.14600
C3897       C  0.86200576  0.92944841  0.46903804     0.36200
C3898       C  0.88869301  0.82011036  0.03068162     0.36100
N3899       N  0.85585535  0.95127243  0.45550965    -0.44100
N3900       N  0.89485248  0.79809618  0.04390151    -0.44100
C3901       C  0.85061795  0.64663518  0.49955354    -0.00500
C3902       C  0.87759300  0.65227087  0.51581184    -0.12400
C3903       C  0.90068757  0.63033240  0.51739471     0.01700
C3904       C  0.89730912  0.60211488  0.50193492    -0.00600
C3905       C  0.87064463  0.59725185  0.98882768    -0.12400
C3906       C  0.84722881  0.61884332  0.98812015     0.01600
H3907       H  0.88037571  0.67370948  0.52801581     0.14600
H3908       H  0.86715410  0.57534910  0.97767554     0.14600
C3909       C  0.81979854  0.61099894  0.97165893     0.36200
C3910       C  0.92674508  0.63694797  0.53640539     0.36100
N3911       N  0.79793255  0.60455854  0.95836244    -0.44100
N3912       N  0.94736635  0.64247313  0.55190950    -0.44100
C3913       C  0.60157043  0.89695472  0.49908157    -0.00500
C3914       C  0.62357445  0.89688742  0.47582645    -0.12400
C3915       C  0.64609735  0.87421258  0.47467400     0.01700
C3916       C  0.64719888  0.85154336  0.49751942    -0.00600
C3917       C  0.61813260  0.84483759  0.00288324    -0.12400
C3918       C  0.59444969  0.86615526  0.00306670     0.01600
H3919       H  0.62277786  0.91424397  0.45820029     0.14600
H3920       H  0.61244793  0.82090538  0.00609855     0.14600
C3921       C  0.56385600  0.85457443  0.00744629     0.36200
C3922       C  0.66665604  0.87372802  0.44895422     0.36100
N3923       N  0.53938926  0.84518965  0.01084856    -0.44100
N3924       N  0.68272436  0.87335669  0.42801859    -0.44100
C3925       C  0.64764065  0.64782271  0.50096151    -0.00500
C3926       C  0.65245152  0.62101739  0.51782200    -0.12400
C3927       C  0.63020902  0.59807631  0.51919226     0.01700
C3928       C  0.60241964  0.60171838  0.50329660    -0.00600
C3929       C  0.59694643  0.62945348  0.98658797    -0.12400
C3930       C  0.61837684  0.65316488  0.98622002     0.01600
H3931       H  0.67348431  0.61820469  0.53049110     0.14600
H3932       H  0.57554953  0.63249803  0.97470985     0.14600
C3933       C  0.61083209  0.68059077  0.96954093     0.36200
C3934       C  0.63625234  0.57171756  0.53801510     0.36100
N3935       N  0.60455243  0.70246357  0.95614168    -0.44100
N3936       N  0.64145860  0.55077944  0.55322372    -0.44100
C3937       C  0.89701718  0.50205794  0.89910777    -0.00500
C3938       C  0.87009364  0.51866864  0.90429272    -0.12400
C3939       C  0.84682876  0.51948522  0.88244561     0.01700
C3940       C  0.85027674  0.50332060  0.85468028    -0.00600
C3941       C  0.87742799  0.98665570  0.84873453    -0.12400
C3942       C  0.90021177  0.98543791  0.87094752     0.01600
H3943       H  0.86735919  0.53141840  0.92536250     0.14600
H3944       H  0.87930640  0.97220456  0.82868164     0.14600
C3945       C  0.92479620  0.96398694  0.86652607     0.36200
C3946       C  0.82026221  0.53793305  0.88879812     0.36100
N3947       N  0.94432193  0.94659459  0.86293278    -0.44100
N3948       N  0.79906359  0.55277006  0.89403932    -0.44100
C3949       C  0.64672574  0.50000927  0.85160444    -0.00500
C3950       C  0.62111984  0.01377668  0.84735050    -0.12400
C3951       C  0.59786953  0.01512958  0.86919676     0.01700
C3952       C  0.60082356  0.50146186  0.89694757    -0.00600
C3953       C  0.62800419  0.48536452  0.90179086    -0.12400
C3954       C  0.65076670  0.48437338  0.87947878     0.01600
H3955       H  0.61780272  0.02497489  0.82555879     0.14600
H3956       H  0.63123038  0.47287874  0.92288187     0.14600
C3957       C  0.67745896  0.46604623  0.88538554     0.36200
C3958       C  0.57078065  0.03217803  0.86157282     0.36100
N3959       N  0.69886349  0.45136340  0.89002580    -0.44100
N3960       N  0.54929531  0.04597884  0.85502387    -0.44100
C3961       C  0.60150186  0.50108651  0.60319562    -0.00500
C3962       C  0.63007289  0.98633658  0.59666498    -0.12400
C3963       C  0.65327372  0.98494426  0.61854460     0.01700
C3964       C  0.64871297  0.49966616  0.64758893    -0.00600
C3965       C  0.62085949  0.51435526  0.65368700    -0.12400
C3966       C  0.59753031  0.51543734  0.63188412     0.01600
H3967       H  0.63335139  0.97484958  0.57496518     0.14600
H3968       H  0.61747211  0.52568916  0.67545136     0.14600
C3969       C  0.57045667  0.53271420  0.63925023     0.36200
C3970       C  0.68016459  0.96732835  0.61121458     0.36100
N3971       N  0.54895090  0.54675261  0.64535929    -0.44100
N3972       N  0.70146507  0.95300270  0.60502668    -0.44100
C3973       C  0.85300839  0.49998475  0.64979874    -0.00500
C3974       C  0.84624217  0.48703252  0.62120495    -0.12400
C3975       C  0.86790794  0.48634209  0.59773220     0.01700
C3976       C  0.89726637  0.49894099  0.60253631    -0.00600
C3977       C  0.90352237  0.01178973  0.63011547    -0.12400
C3978       C  0.88191247  0.01197891  0.65362306     0.01600
H3979       H  0.82397642  0.47695545  0.61721458     0.14600
H3980       H  0.92574298  0.02192220  0.63421844     0.14600
C3981       C  0.89056940  0.02585291  0.68226824     0.36200
C3982       C  0.85955307  0.47165114  0.56938262     0.36100
N3983       N  0.89758079  0.03681595  0.70525874    -0.44100
N3984       N  0.85293741  0.45993692  0.54663877    -0.44100
C3985       C  0.49912092  0.64575067  0.85025334    -0.00500
C3986       C  0.50758813  0.65407344  0.88000789    -0.12400
C3987       C  0.50707508  0.63301057  0.90385902     0.01700
C3988       C  0.49873915  0.60219131  0.89812254    -0.00600
C3989       C  0.99060030  0.59401569  0.86820015    -0.12400
C3990       C  0.99068650  0.61532409  0.84441031     0.01600
H3991       H  0.51443992  0.67742021  0.88492869     0.14600
H3992       H  0.98422234  0.57055385  0.86319136     0.14600
C3993       C  0.98247154  0.60430802  0.81444997     0.36200
C3994       C  0.51486150  0.64431568  0.93383020     0.36100
N3995       N  0.97619147  0.59500260  0.79054733    -0.44100
N3996       N  0.52062674  0.65384442  0.95777425    -0.44100
C3997       C  0.50140832  0.89703875  0.89942564    -0.00500
C3998       C  0.01376385  0.90216516  0.87234980    -0.12400
C3999       C  0.01419857  0.88058217  0.84883114     0.01700
C4000       C  0.50196578  0.85211922  0.85276412    -0.00600
C4001       C  0.48531818  0.84738101  0.87973184    -0.12400
C4002       C  0.48502710  0.86935315  0.90301499     0.01600
H4003       H  0.02543595  0.92382448  0.86909697     0.14600
H4004       H  0.47220402  0.82650608  0.88254405     0.14600
C4005       C  0.46704262  0.86314569  0.92993833     0.36200
C4006       C  0.03121540  0.88813646  0.82166079     0.36100
N4007       N  0.45280645  0.85813868  0.95160362    -0.44100
N4008       N  0.04499690  0.89453783  0.80007322    -0.44100
C4009       C  0.49927640  0.85231569  0.64822879    -0.00500
C4010       C  0.01403747  0.88067386  0.65394056    -0.12400
C4011       C  0.01448202  0.90413792  0.63228034     0.01700
C4012       C  0.50016033  0.89904353  0.60352944    -0.00600
C4013       C  0.48468421  0.87143526  0.59816611    -0.12400
C4014       C  0.48354606  0.84847638  0.62032376     0.01600
H4015       H  0.02563116  0.88411911  0.67551064     0.14600
H4016       H  0.47248161  0.86815830  0.57690518     0.14600
C4017       C  0.46421302  0.82234283  0.61448648     0.36200
C4018       C  0.02975710  0.93235941  0.64030060     0.36100
N4019       N  0.44826252  0.80179529  0.60962072    -0.44100
N4020       N  0.04166908  0.95500709  0.64713018    -0.44100
C4021       C  0.50298694  0.60137855  0.60349341    -0.00500
C4022       C  0.98639831  0.59667248  0.62978676    -0.12400
C4023       C  0.98468295  0.61916208  0.65240093     0.01700
C4024       C  0.49973627  0.64755240  0.64840629    -0.00600
C4025       C  0.51865700  0.65116767  0.62285494    -0.12400
C4026       C  0.52071885  0.62824763  0.60065576     0.01600
H4027       H  0.97412283  0.57532818  0.63292457     0.14600
H4028       H  0.53259260  0.67157418  0.62069920     0.14600
C4029       C  0.54251362  0.63217626  0.57625980     0.36200
C4030       C  0.96634281  0.61271496  0.67903050     0.36100
N4031       N  0.56029955  0.63541649  0.55702219    -0.44100
N4032       N  0.95160898  0.60725858  0.70025258    -0.44100
loop_ 
_geom_bond_atom_site_label_1 
_geom_bond_atom_site_label_2 
_geom_bond_distance 
_geom_bond_site_symmetry_2 
_ccdc_geom_bond_type 
O1           C12   1.287   1_655  A
O1          Eu37   2.435       .  S
O2           C13   1.292       .  A
O2          Eu36   2.459   1_655  S
O3           C14   1.293   1_556  A
O3           Eu9   2.466   1_556  S
O4           C15   1.289       .  A
O4        Eu2025   2.448       .  S
O5           C15   1.292       .  A
O5          Eu39   2.456   1_554  S
O6           C14   1.289       .  A
O6          Eu38   2.446   1_545  S
O7           C13   1.287       .  A
O7         Eu513   2.434   1_655  S
O8           C12   1.289       .  A
O8           Eu9   2.443       .  S
Eu9        O2020   2.456   1_455  S
Eu9         O511   2.435   1_454  S
Eu9          O11   2.341       .  S
Eu9        O2035   2.352   1_455  S
Eu9        O2530   2.349   1_454  S
Eu9         O521   2.350   1_554  S
O10       Eu2529   2.351       .  S
O10        Eu543   2.343       .  S
O10       Eu2052   2.344       .  S
O11         Eu37   2.350   1_455  S
O11         Eu38   2.348   1_545  S
C12         C493   1.468       .  S
C13         C460   1.486       .  S
C14         C400   1.483       .  S
C15         C376   1.485       .  S
H16          O17   0.966       .  S
O17         Eu36   2.356       .  S
O17        Eu513   2.356       .  S
O17        Eu542   2.354   1_545  S
H18          O19   0.966       .  S
O19         Eu39   2.355   1_554  S
O19       Eu2025   2.352       .  S
O19       Eu2053   2.350   1_545  S
O20          C43   1.293       .  A
O20       Eu1044   2.466       .  S
O21          C44   1.292       .  A
O21       Eu1045   2.463       .  S
O22          C45   1.293       .  A
O22        Eu542   2.466   1_545  S
O23          C46   1.293       .  A
O23        Eu543   2.473       .  S
O24          C47   1.291       .  A
O24         Eu39   2.455   1_564  S
O25          C48   1.292       .  A
O25         Eu38   2.462   1_545  S
O26          C49   1.289       .  A
O26         Eu40   2.450   1_455  S
O27          C50   1.290   1_554  A
O27       Eu2056   2.448       .  S
O28          C49   1.291       .  A
O28       Eu1046   2.453       .  S
O29          C50   1.290       .  A
O29       Eu1047   2.449       .  S
O30          C45   1.289       .  A
O30         Eu36   2.448       .  S
O31          C48   1.289       .  A
O31         Eu37   2.448   1_455  S
O32          C47   1.291   1_545  A
O32       Eu2053   2.460   1_545  S
O33          C46   1.292       .  A
O33       Eu2052   2.461       .  S
O34          C43   1.291   1_455  A
O34        Eu544   2.456   1_455  S
O35          C44   1.292       .  A
O35         Eu40   2.460       .  S
Eu36       O1028   2.473   1_445  S
Eu36       O2049   2.457   1_455  S
Eu36       O2026   2.342   1_455  S
Eu36       O3078   2.349   1_445  S
Eu36       O1050   2.353   1_545  S
Eu37       O1029   2.444   1_545  S
Eu37       O2048   2.460       .  S
Eu37       O2035   2.348       .  S
Eu37       O3065   2.346   1_545  S
Eu37       O1060   2.352   1_645  S
Eu38        O526   2.470   1_554  S
Eu38       O1036   2.444       .  S
Eu38        O521   2.353   1_564  S
Eu38       O1060   2.355       .  S
Eu38       O1554   2.347   1_554  S
Eu39        O527   2.467       .  S
Eu39       O1037   2.457   1_545  S
Eu39        O514   2.345       .  S
Eu39       O1049   2.358   1_546  S
Eu39       O1566   2.352   1_545  S
Eu40       O2043   2.446       .  S
Eu40        O538   2.455   1_554  S
Eu40         O52   2.345   1_655  S
Eu40       O2057   2.349       .  S
Eu40       O2574   2.355   1_554  S
Eu40        O546   2.350   1_654  S
O41       Eu3061   2.350       .  S
O41       Eu1047   2.355   1_554  S
O41       Eu2056   2.350       .  S
O42       Eu1044   2.356   1_455  S
O42       Eu1550   2.353       .  S
O42        Eu544   2.351   1_455  S
C43         C469   1.492       .  S
C44         C484   1.485       .  S
C45         C424   1.484       .  S
C46         C409   1.492       .  S
C47         C448   1.478       .  S
C48         C433   1.484       .  S
C49         C385   1.494       .  S
C50         C361   1.480       .  S
H51          O52   0.965       .  S
O52       Eu1045   2.352   1_455  S
O52       Eu1046   2.354       .  S
H53          O54   0.966       .  S
O54       Eu3060   2.342       .  S
O54       Eu1551   2.348       .  S
O54       Eu2560   2.358       .  S
O55          C66   1.290   1_455  A
O55         Eu91   2.450   1_455  S
O56          C67   1.293       .  A
O56         Eu90   2.463       .  S
O57          C68   1.292       .  A
O57         Eu63   2.462   1_455  S
O58          C69   1.291       .  A
O58       Eu2079   2.456       .  S
O59          C69   1.288       .  A
O59         Eu93   2.441       .  S
O60          C68   1.288       .  A
O60         Eu92   2.436       .  S
O61          C67   1.288       .  A
O61         Eu63   2.445       .  S
O62          C66   1.288       .  A
O62         Eu63   2.442       .  S
Eu63       O2074   2.456       .  S
Eu63         O65   2.346   1_655  S
Eu63         O71   2.358   1_655  S
Eu63       O2089   2.353       .  S
Eu63       O2080   2.350       .  S
O64         Eu93   2.352       .  S
O64       Eu2079   2.351       .  S
O64       Eu2106   2.352       .  S
O65         Eu91   2.348   1_455  S
O65         Eu92   2.349       .  S
C66         C496   1.471       .  S
C67         C457   1.489       .  S
C68         C289   1.476       .  S
C69         C265   1.473       .  S
H70          O71   0.966       .  S
O71         Eu92   2.356       .  S
O71         Eu90   2.358   1_455  S
H72          O73   0.966       .  S
O73         Eu93   2.353       .  S
O73       Eu2079   2.350       .  S
O73       Eu2107   2.351       .  S
O74          C97   1.294       .  A
O74         Eu90   2.467       .  S
O75          C98   1.292       .  A
O75         Eu91   2.462       .  S
O76          C99   1.293       .  A
O76         Eu92   2.467       .  S
O77         C100   1.292       .  A
O77         Eu93   2.461       .  S
O78         C101   1.293       .  A
O78         Eu93   2.464       .  S
O79         C102   1.292       .  A
O79         Eu92   2.461       .  S
O80         C103   1.292       .  A
O80         Eu94   2.462   1_455  S
O81         C104   1.290       .  A
O81       Eu2110   2.454       .  S
O82         C103   1.290       .  A
O82         Eu92   2.449       .  S
O83         C104   1.291       .  A
O83         Eu93   2.453       .  S
O84          C99   1.292       .  A
O84         Eu90   2.465   1_455  S
O85         C102   1.289       .  A
O85         Eu91   2.445   1_455  S
O86         C101   1.288       .  A
O86       Eu2107   2.440       .  S
O87         C100   1.291       .  A
O87       Eu2106   2.455       .  S
O88          C97   1.291       .  A
O88         Eu94   2.456       .  S
O89          C98   1.291       .  A
O89         Eu94   2.457       .  S
Eu90       O2103   2.462       .  S
Eu90         O96   2.349   1_655  S
Eu90       O2080   2.350       .  S
Eu90       O2124   2.355       .  S
Eu91       O2102   2.440       .  S
Eu91        O106   2.347   1_655  S
Eu91       O2089   2.351       .  S
Eu91       O2111   2.348       .  S
Eu92        O106   2.349       .  S
Eu92         O96   2.343       .  S
Eu93         O95   2.349       .  S
Eu93        O108   2.352       .  S
Eu94       O2097   2.453       .  S
Eu94        O106   2.346   1_655  S
Eu94         O96   2.347   1_655  S
Eu94       O2111   2.348       .  S
Eu94       O2124   2.355       .  S
O95       Eu2107   2.349       .  S
O95       Eu2110   2.349       .  S
C97         C472   1.494   1_655  S
C98         C481   1.485       .  S
C99         C337   1.485       .  S
C100        C349   1.483       .  S
C101        C313   1.481       .  S
C102        C325   1.490       .  S
C103        C301   1.489       .  S
C104        C277   1.494       .  S
H105        O106   0.966       .  S
H107        O108   0.966       .  S
O108      Eu2106   2.354       .  S
O108      Eu2110   2.353       .  S
O109        C120   1.293       .  A
O109       Eu145   2.471       .  S
O110        C121   1.292       .  A
O110       Eu144   2.465       .  S
O111        C122   1.292       .  A
O111       Eu117   2.458       .  S
O112        C123   1.291       .  A
O112      Eu1125   2.455       .  S
O113        C123   1.291       .  A
O113       Eu147   2.455       .  S
O114        C122   1.290       .  A
O114       Eu146   2.451       .  S
O115        C121   1.290       .  A
O115       Eu117   2.453       .  S
O116        C120   1.292       .  A
O116       Eu117   2.460       .  S
Eu117      O1120   2.467       .  S
Eu117       O119   2.352       .  S
Eu117       O125   2.354       .  S
Eu117      O1135   2.352       .  S
Eu117      O1126   2.350       .  S
O118       Eu147   2.350       .  S
O118      Eu1125   2.350       .  S
O118      Eu1152   2.349       .  S
O119       Eu145   2.352       .  S
O119       Eu146   2.354       .  S
C120       C1453   1.486       .  S
C121       C1444   1.483       .  S
C122        C232   1.485       .  S
C123        C220   1.479       .  S
H124        O125   0.966       .  S
O125       Eu146   2.352       .  S
O125       Eu144   2.353       .  S
H126        O127   0.965       .  S
O127       Eu147   2.354       .  S
O127      Eu1125   2.350       .  S
O127      Eu1153   2.353   1_545  S
O128        C151   1.293       .  A
O128       Eu144   2.465       .  S
O129        C152   1.294       .  A
O129       Eu145   2.472       .  S
O130        C153   1.292       .  A
O130       Eu146   2.461       .  S
O131        C154   1.289       .  A
O131       Eu147   2.447       .  S
O132        C155   1.288       .  A
O132       Eu147   2.439       .  S
O133        C156   1.290       .  A
O133       Eu146   2.454       .  S
O134        C157   1.291       .  A
O134       Eu148   2.461       .  S
O135        C158   1.287       .  A
O135      Eu1156   2.433       .  S
O136        C157   1.291       .  A
O136       Eu146   2.460       .  S
O137        C158   1.292       .  A
O137       Eu147   2.462       .  S
O138        C153   1.291       .  A
O138       Eu144   2.457       .  S
O139        C156   1.294       .  A
O139       Eu145   2.464       .  S
O140        C155   1.291       .  A
O140      Eu1153   2.455   1_545  S
O141        C154   1.291       .  A
O141      Eu1152   2.454       .  S
O142        C151   1.288       .  A
O142       Eu148   2.439       .  S
O143        C152   1.290       .  A
O143       Eu148   2.453       .  S
Eu144      O1149   2.458       .  S
Eu144       O150   2.353       .  S
Eu144      O1126   2.350       .  S
Eu144      O1170   2.356       .  S
Eu145      O1148   2.457       .  S
Eu145       O160   2.358       .  S
Eu145      O1135   2.358       .  S
Eu145      O1157   2.349       .  S
Eu146       O160   2.356       .  S
Eu146       O150   2.344       .  S
Eu147       O149   2.352       .  S
Eu147       O162   2.349       .  S
Eu148      O1143   2.443       .  S
Eu148       O160   2.348       .  S
Eu148       O150   2.348       .  S
Eu148      O1157   2.348       .  S
Eu148      O1170   2.358       .  S
O149      Eu1153   2.349   1_545  S
O149      Eu1156   2.349       .  S
C151       C1429   1.486       .  S
C152       C1420   1.486       .  S
C153        C304   1.488       .  S
C154        C292   1.477       .  S
C155        C268   1.473       .  S
C156        C280   1.495       .  S
C157        C241   1.488       .  S
C158        C253   1.475       .  S
H159        O160   0.966       .  S
H161        O162   0.963       .  S
O162      Eu1152   2.352       .  S
O162      Eu1156   2.359       .  S
O163        C174   1.291       .  A
O163       Eu199   2.452       .  S
O164        C175   1.291       .  A
O164       Eu198   2.458       .  S
O165        C176   1.293       .  A
O165       Eu675   2.463       .  S
O166        C177   1.293       .  A
O166       Eu171   2.469       .  S
O167        C177   1.291       .  A
O167       Eu201   2.461       .  S
O168        C176   1.289       .  A
O168       Eu200   2.447       .  S
O169        C175   1.294       .  A
O169       Eu171   2.477       .  S
O170        C174   1.290       .  A
O170       Eu171   2.453       .  S
Eu171       O669   2.462       .  S
Eu171       O181   2.357       .  S
Eu171       O172   2.345       .  S
Eu171       O677   2.358       .  S
Eu171       O683   2.356       .  S
O172       Eu201   2.349       .  S
O172       Eu198   2.352       .  S
O173       Eu200   2.354       .  S
O173       Eu675   2.354       .  S
O173       Eu703   2.351       .  S
C174        C901   1.475       .  S
C175        C892   1.482       .  S
C176        C328   1.490       .  S
C177        C340   1.486       .  S
H178        O179   0.966       .  S
O179       Eu200   2.347       .  S
O179       Eu675   2.351       .  S
O179       Eu702   2.347       .  S
H180        O181   0.966       .  S
O181       Eu199   2.356       .  S
O181       Eu201   2.342       .  S
O182        C205   1.292       .  A
O182       Eu198   2.460       .  S
O183        C206   1.291       .  A
O183       Eu199   2.458       .  S
O184        C207   1.292       .  A
O184       Eu200   2.461       .  S
O185        C208   1.288       .  A
O185       Eu201   2.441       .  S
O186        C209   1.289       .  A
O186       Eu201   2.447       .  S
O187        C210   1.290       .  A
O187       Eu200   2.457       .  S
O188        C211   1.292       .  A
O188       Eu706   2.460   1_554  S
O189        C212   1.293       .  A
O189       Eu202   2.465       .  S
O190        C211   1.288       .  A
O190       Eu200   2.439       .  S
O191        C212   1.289       .  A
O191       Eu201   2.444       .  S
O192        C207   1.287       .  A
O192       Eu702   2.438       .  S
O193        C210   1.293       .  A
O193       Eu703   2.467       .  S
O194        C209   1.291       .  A
O194       Eu199   2.454       .  S
O195        C208   1.294       .  A
O195       Eu198   2.467       .  S
O196        C205   1.290       .  A
O196       Eu202   2.452       .  S
O197        C206   1.292       .  A
O197       Eu202   2.459       .  S
Eu198       O696   2.468       .  S
Eu198       O216   2.356       .  S
Eu198       O683   2.356       .  S
Eu198       O708   2.350       .  S
Eu199       O697   2.459       .  S
Eu199       O203   2.346       .  S
Eu199       O677   2.349       .  S
Eu199       O718   2.352       .  S
Eu200       O214   2.351       .  S
Eu200       O204   2.345       .  S
Eu201       O203   2.351       .  S
Eu201       O216   2.358       .  S
Eu202       O692   2.472       .  S
Eu202       O203   2.352       .  S
Eu202       O216   2.360       .  S
Eu202       O718   2.351       .  S
Eu202       O708   2.350       .  S
O204       Eu702   2.347       .  S
O204       Eu706   2.351   1_554  S
C205        C868   1.482       .  S
C206        C877   1.487       .  S
C207        C229   1.482       .  S
C208        C244   1.483       .  S
C209        C256   1.476       .  S
C210        C217   1.481       .  S
C211        C316   1.480       .  S
C212        C352   1.482       .  S
H213        O214   0.966       .  S
O214       Eu703   2.350       .  S
O214       Eu706   2.351   1_554  S
H215        O216   0.966       .  S
C217        C218   1.404       .  A
C217        C222   1.415       .  A
C218        C219   1.400       .  A
C218        H223   1.085       .  S
C219        C220   1.412       .  A
C219        C226   1.444       .  S
C220        C221   1.404       .  A
C221        C222   1.401       .  A
C221        H224   1.085       .  S
C222        C225   1.444       .  S
C225        N227   1.157       .  T
C226        N228   1.157       .  T
C229        C230   1.404       .  A
C229        C234   1.416       .  A
C230        C231   1.398       .  A
C230        H235   1.085       .  S
C231        C232   1.415       .  A
C231        C238   1.445       .  S
C232        C233   1.406       .  A
C233        C234   1.400       .  A
C233        H236   1.085       .  S
C234        C237   1.446       .  S
C237        N239   1.158       .  T
C238        N240   1.157       .  T
C241        C242   1.408       .  A
C241        C246   1.415       .  A
C242        C243   1.404       .  A
C242        H247   1.085       .  S
C243        C244   1.416       .  A
C243        C250   1.446       .  S
C244        C245   1.402       .  A
C245        C246   1.397       .  A
C245        H248   1.085       .  S
C246        C249   1.444       .  S
C249        N251   1.157       .  T
C250        N252   1.158       .  T
C253        C254   1.402       .  A
C253        C258   1.415       .  A
C254        C255   1.397       .  A
C254        H259   1.085       .  S
C255        C256   1.413       .  A
C255        C262   1.444       .  S
C256        C257   1.403       .  A
C257        C258   1.398       .  A
C257        H260   1.085       .  S
C258        C261   1.445       .  S
C261        N263   1.157       .  T
C262        N264   1.157       .  T
C265        C266   1.401       .  A
C265        C270   1.413       .  A
C266        C267   1.396       .  A
C266        H271   1.083       .  S
C267        C268   1.411       .  A
C267        C274   1.444       .  S
C268        C269   1.404       .  A
C269        C270   1.398       .  A
C269        H272   1.085       .  S
C270        C273   1.445       .  S
C273        N275   1.157       .  T
C274        N276   1.157       .  T
C277        C278   1.407       .  A
C277        C282   1.418       .  A
C278        C279   1.401       .  A
C278        H283   1.085       .  S
C279        C280   1.419       .  A
C279        C286   1.445       .  S
C280        C281   1.407       .  A
C281        C282   1.400       .  A
C281        H284   1.085       .  S
C282        C285   1.445       .  S
C285        N287   1.158       .  T
C286        N288   1.158       .  T
C289        C290   1.404       .  A
C289        C294   1.412       .  A
C290        C291   1.397       .  A
C290        H295   1.085       .  S
C291        C292   1.413       .  A
C291        C298   1.445       .  S
C292        C293   1.405       .  A
C293        C294   1.399       .  A
C293        H296   1.085       .  S
C294        C297   1.445       .  S
C297        N299   1.157       .  T
C298        N300   1.157       .  T
C301        C302   1.407       .  A
C301        C306   1.417       .  A
C302        C303   1.402       .  A
C302        H307   1.085       .  S
C303        C304   1.415       .  A
C303        C310   1.445       .  S
C304        C305   1.405       .  A
C305        C306   1.399       .  A
C305        H308   1.085       .  S
C306        C309   1.445       .  S
C309        N311   1.157       .  T
C310        N312   1.158       .  T
C313        C314   1.403       .  A
C313        C318   1.416       .  A
C314        C315   1.397       .  A
C314        H319   1.085       .  S
C315        C316   1.415       .  A
C315        C322   1.445       .  S
C316        C317   1.404       .  A
C317        C318   1.398       .  A
C317        H320   1.085       .  S
C318        C321   1.445       .  S
C321        N323   1.157       .  T
C322        N324   1.157       .  T
C325        C326   1.406       .  A
C325        C330   1.418       .  A
C326        C327   1.400       .  A
C326        H331   1.085       .  S
C327        C328   1.418       .  A
C327        C334   1.445       .  S
C328        C329   1.406       .  A
C329        C330   1.399       .  A
C329        H332   1.085       .  S
C330        C333   1.446       .  S
C333        N335   1.158       .  T
C334        N336   1.158       .  T
C337        C338   1.404       .  A
C337        C342   1.414       .  A
C338        C339   1.402       .  A
C338        H343   1.085       .  S
C339        C340   1.415       .  A
C339        C346   1.444       .  S
C340        C341   1.405       .  A
C341        C342   1.403       .  A
C341        H344   1.085       .  S
C342        C345   1.444       .  S
C345        N347   1.157       .  T
C346        N348   1.157       .  T
C349        C350   1.404       .  A
C349        C354   1.413       .  A
C350        C351   1.400       .  A
C350        H355   1.085       .  S
C351        C352   1.416       .  A
C351        C358   1.445       .  S
C352        C353   1.404       .  A
C353        C354   1.399       .  A
C353        H356   1.085       .  S
C354        C357   1.443       .  S
C357        N359   1.157       .  T
C358        N360   1.158       .  T
C361        C366   1.415       .  A
C361        C866   1.405   1_556  A
C362        C363   1.399       .  A
C362        C865   1.404       .  A
C362        H367   1.085       .  S
C363        C868   1.415       .  A
C363        C370   1.445       .  S
C364        C709   1.480       .  S
C364        C365   1.404   1_554  A
C364        C867   1.415       .  A
C365        C366   1.397       .  A
C365        H368   1.085       .  S
C366        C369   1.445       .  S
C369        N371   1.157       .  T
C370        N372   1.157       .  T
C373        C710   1.483       .  S
C373        C374   1.406   1_556  A
C373        C882   1.414       .  A
C374        C375   1.399       .  A
C374        H379   1.085       .  S
C375        C376   1.417       .  A
C375        C382   1.445       .  S
C376        C881   1.406   1_554  A
C377        C378   1.401       .  A
C377        C880   1.406       .  A
C377        H380   1.085       .  S
C378        C877   1.416       .  A
C378        C381   1.445       .  S
C381        N383   1.157       .  T
C382        N384   1.158       .  T
C385        C386   1.407       .  A
C385        C894   1.419   1_554  A
C386        C387   1.400       .  A
C386        H391   1.085       .  S
C387        C388   1.418       .  A
C387        C394   1.445       .  S
C388        C679   1.495       .  S
C388        C893   1.408   1_554  A
C389        C390   1.402       .  A
C389        C892   1.405       .  A
C389        H392   1.085       .  S
C390        C889   1.410       .  A
C390        C393   1.444       .  S
C393        N395   1.157       .  T
C394        N396   1.157       .  T
C397        C678   1.481       .  S
C397        C398   1.404   1_556  A
C397        C906   1.414       .  A
C398        C399   1.399       .  A
C398        H403   1.085       .  S
C399        C400   1.416       .  A
C399        C406   1.445       .  S
C400        C905   1.404   1_554  A
C401        C402   1.397       .  A
C401        C904   1.402       .  A
C401        H404   1.085       .  S
C402        C901   1.413       .  A
C402        C405   1.444       .  S
C405        N407   1.157       .  T
C406        N408   1.157       .  T
C409        C410   1.406       .  A
C409       C1422   1.415   1_545  A
C410        C411   1.405       .  A
C410        H415   1.085       .  S
C411        C412   1.417       .  A
C411        C418   1.445       .  S
C412       C1160   1.493       .  S
C412       C1421   1.405   1_545  A
C413        C414   1.400       .  A
C413       C1420   1.403       .  A
C413        H416   1.085       .  S
C414       C1417   1.414       .  A
C414        C417   1.443       .  S
C417        N419   1.157       .  T
C418        N420   1.157       .  T
C421       C1159   1.484       .  S
C421        C426   1.415   1_545  A
C421       C1430   1.404       .  A
C422        C423   1.399       .  A
C422       C1429   1.404       .  A
C422        H427   1.085       .  S
C423       C1432   1.418       .  A
C423        C430   1.445       .  S
C424        C425   1.404   1_545  A
C424       C1431   1.416       .  A
C425        C426   1.400       .  A
C425        H428   1.085       .  S
C426        C429   1.445       .  S
C429        N431   1.157       .  T
C430        N432   1.157       .  T
C433        C438   1.415       .  A
C433       C1442   1.404   1_545  A
C434        C435   1.401       .  A
C434       C1441   1.405       .  A
C434        H439   1.085       .  S
C435       C1444   1.415       .  A
C435        C442   1.445       .  S
C436       C1129   1.485       .  S
C436        C437   1.405       .  A
C436       C1443   1.415   1_545  A
C437        C438   1.401       .  A
C437        H440   1.085       .  S
C438        C441   1.445       .  S
C441        N443   1.157       .  T
C442        N444   1.157       .  T
C445       C1128   1.483   1_545  S
C445        C446   1.406   1_545  A
C445       C1458   1.414       .  A
C446        C447   1.404       .  A
C446        H451   1.085       .  S
C447        C448   1.412       .  A
C447        C454   1.445       .  S
C448       C1457   1.402   1_565  A
C449        C450   1.403       .  A
C449       C1456   1.405       .  A
C449        H452   1.085       .  S
C450       C1453   1.414       .  A
C450        C453   1.444       .  S
C453        N455   1.157       .  T
C454        N456   1.157       .  T
C457        C458   1.407   1_655  A
C457       C2478   1.417       .  A
C458        C459   1.396       .  A
C458        H463   1.085       .  S
C459        C460   1.416   1_455  A
C459        C466   1.445       .  S
C460       C2477   1.406       .  A
C461        C462   1.397       .  A
C461       C2476   1.406       .  A
C461        H464   1.085       .  S
C462       C2473   1.417       .  A
C462        C465   1.444       .  S
C465        N467   1.157       .  T
C466        N468   1.158       .  T
C469        C474   1.417       .  A
C469       C2486   1.405   1_655  A
C470        C471   1.401       .  A
C470       C2485   1.404       .  A
C470        H475   1.085       .  S
C471       C2488   1.418       .  A
C471        C478   1.445       .  S
C472        C473   1.407   1_455  A
C472       C2487   1.419       .  A
C473        C474   1.402       .  A
C473        H476   1.085       .  S
C474        C477   1.445       .  S
C477        N479   1.157       .  T
C478        N480   1.157       .  T
C481        C486   1.414       .  A
C481       C2498   1.406   1_655  A
C482        C483   1.403       .  A
C482       C2497   1.406       .  A
C482        H487   1.085       .  S
C483       C2500   1.415       .  A
C483        C490   1.445       .  S
C484        C485   1.405       .  A
C484       C2499   1.414   1_655  A
C485        C486   1.401       .  A
C485        H488   1.085       .  S
C486        C489   1.444       .  S
C489        N491   1.157       .  T
C490        N492   1.158       .  T
C493        C498   1.411       .  A
C493       C2510   1.402   1_455  A
C494        C495   1.395       .  A
C494       C2509   1.401       .  A
C494        H499   1.085       .  S
C495       C2512   1.414       .  A
C495        C502   1.444       .  S
C496        C497   1.403   1_655  A
C496       C2511   1.412       .  A
C497        C498   1.397       .  A
C497        H500   1.085       .  S
C498        C501   1.445       .  S
C501        N503   1.157       .  T
C502        N504   1.157       .  T
O505        C516   1.290       .  A
O505       Eu541   2.453   1_455  S
O506        C517   1.292       .  A
O506       Eu540   2.457   1_545  S
O507        C518   1.292       .  A
O507       Eu513   2.459       .  S
O508        C519   1.293       .  A
O508      Eu2529   2.466       .  S
O509        C519   1.289       .  A
O509       Eu543   2.443       .  S
O510        C518   1.288       .  A
O510       Eu542   2.440   1_545  S
O511        C517   1.286       .  A
O512        C516   1.290       .  A
O512       Eu513   2.456       .  S
Eu513      O2524   2.459   1_455  S
Eu513      O2539   2.349   1_455  S
Eu513       O515   2.340       .  S
Eu513      O2026   2.350   1_455  S
O514      Eu2025   2.350   1_556  S
O514      Eu2556   2.345       .  S
O515       Eu541   2.343   1_455  S
O515       Eu542   2.355   1_545  S
C516        C997   1.473       .  S
C517        C964   1.489       .  S
C518        C904   1.474       .  S
C519        C880   1.486       .  S
H520        O521   0.966       .  S
O521       Eu540   2.357   1_445  S
H522        O523   0.966       .  S
O523      Eu2529   2.348       .  S
O523      Eu2557   2.352       .  S
O523       Eu543   2.365       .  S
O524        C547   1.292       .  A
O524      Eu1548   2.460       .  S
O525        C548   1.289       .  A
O525      Eu1549   2.446   1_455  S
O526        C549   1.293       .  A
O527        C550   1.292       .  A
O528        C551   1.289       .  A
O528       Eu543   2.445   1_565  S
O529        C552   1.292       .  A
O529       Eu542   2.460   1_545  S
O530        C553   1.293       .  A
O530       Eu544   2.467   1_455  S
O531        C554   1.292       .  A
O531      Eu2560   2.457       .  S
O532        C553   1.290       .  A
O532      Eu1550   2.452       .  S
O533        C554   1.291       .  A
O533      Eu1551   2.456       .  S
O534        C549   1.291       .  A
O534       Eu540   2.457   1_455  S
O535        C552   1.292       .  A
O535       Eu541   2.462   1_455  S
O536        C551   1.293   1_545  A
O536      Eu2557   2.465       .  S
O537        C550   1.293       .  A
O537      Eu2556   2.467       .  S
O538        C547   1.291       .  A
O539        C548   1.294       .  A
O539       Eu544   2.468   1_455  S
Eu540      O1532   2.466       .  S
Eu540      O2553   2.465   1_565  S
Eu540      O2530   2.345   1_565  S
Eu540      O3582   2.346       .  S
Eu540      O1554   2.352   1_655  S
Eu541      O1533   2.435   1_645  S
Eu541      O2552   2.467       .  S
Eu541      O2539   2.349       .  S
Eu541      O3569   2.353   1_545  S
Eu541      O1564   2.359   1_645  S
Eu542      O1540   2.457       .  S
Eu542      O1564   2.351       .  S
Eu542      O1050   2.348       .  S
Eu543      O1541   2.457   1_545  S
Eu543      O1553   2.355   1_545  S
Eu543      O1062   2.343   1_545  S
Eu544      O2547   2.466       .  S
Eu544      O2561   2.355       .  S
Eu544       O556   2.351   1_655  S
Eu544      O2070   2.358       .  S
O545      Eu3565   2.351       .  S
O545      Eu1551   2.356       .  S
O545      Eu2560   2.352       .  S
O546      Eu1548   2.353   1_455  S
O546      Eu1046   2.349   1_556  S
C547        C973   1.487       .  S
C548        C988   1.485       .  S
C549        C928   1.487   1_565  S
C550        C913   1.488       .  S
C551        C952   1.487       .  S
C552        C937   1.488       .  S
C553        C889   1.478       .  S
C554        C865   1.482       .  S
H555        O556   0.966       .  S
O556      Eu1549   2.351   1_455  S
O556      Eu1550   2.349       .  S
H557        O558   0.966       .  S
O558      Eu3564   2.346       .  S
O558      Eu1047   2.348       .  S
O558      Eu2056   2.356   1_556  S
O559        C570   1.290       .  A
O559       Eu595   2.456       .  S
O560        C571   1.292   1_455  A
O560       Eu594   2.458       .  S
O561        C572   1.288       .  A
O561       Eu567   2.445   1_455  S
O562        C573   1.292       .  A
O562      Eu2583   2.456       .  S
O563        C573   1.289       .  A
O563       Eu597   2.449       .  S
O564        C572   1.293       .  A
O564       Eu596   2.462       .  S
O565        C571   1.286       .  A
O565       Eu567   2.437       .  S
O566        C570   1.289   1_655  A
O566       Eu567   2.448       .  S
Eu567      O2578   2.457       .  S
Eu567      O2593   2.349       .  S
Eu567       O569   2.342   1_655  S
Eu567      O2584   2.345       .  S
Eu567       O575   2.360   1_655  S
O568      Eu2583   2.346       .  S
O568       Eu597   2.352       .  S
O568      Eu2610   2.351       .  S
O569       Eu595   2.344       .  S
O569       Eu596   2.350       .  S
C570       C1000   1.473       .  S
C571        C961   1.490       .  S
C572        C793   1.480       .  S
C573        C769   1.481       .  S
H574        O575   0.966       .  S
O575       Eu596   2.355       .  S
O575       Eu594   2.354       .  S
H576        O577   0.966       .  S
O577      Eu2583   2.354       .  S
O577      Eu2611   2.348       .  S
O577       Eu597   2.356       .  S
O578        C601   1.292       .  A
O578       Eu594   2.459       .  S
O579        C602   1.289       .  A
O579       Eu595   2.447       .  S
O580        C603   1.293       .  A
O580       Eu596   2.466       .  S
O581        C604   1.291       .  A
O581       Eu597   2.455       .  S
O582        C605   1.292       .  A
O582       Eu597   2.465       .  S
O583        C606   1.294       .  A
O583       Eu596   2.469       .  S
O584        C607   1.288       .  A
O584       Eu598   2.444       .  S
O585        C608   1.293       .  A
O585      Eu2614   2.468       .  S
O586        C607   1.292       .  A
O586       Eu596   2.461       .  S
O587        C608   1.291       .  A
O587       Eu597   2.461       .  S
O588        C603   1.292       .  A
O588       Eu594   2.467       .  S
O589        C606   1.287       .  A
O589       Eu595   2.438       .  S
O590        C605   1.291       .  A
O590      Eu2611   2.457       .  S
O591        C604   1.292       .  A
O591      Eu2610   2.463       .  S
O592        C601   1.290       .  A
O592       Eu598   2.455       .  S
O593        C602   1.293       .  A
O593       Eu598   2.466       .  S
Eu594      O2607   2.465   1_455  S
Eu594      O2584   2.350   1_455  S
Eu594      O2628   2.358   1_455  S
Eu594       O600   2.350       .  S
Eu595      O2606   2.455   1_455  S
Eu595      O2593   2.347   1_455  S
Eu595      O2615   2.351   1_455  S
Eu595       O610   2.354       .  S
Eu596       O610   2.356       .  S
Eu596       O600   2.351       .  S
Eu597       O599   2.346       .  S
Eu597       O612   2.352       .  S
Eu598      O2601   2.460   1_455  S
Eu598      O2615   2.348   1_455  S
Eu598       O610   2.355       .  S
Eu598      O2628   2.352   1_455  S
Eu598       O600   2.354       .  S
O599      Eu2611   2.347       .  S
O599      Eu2614   2.347       .  S
C601        C976   1.488       .  S
C602        C985   1.484       .  S
C603        C841   1.488       .  S
C604        C853   1.482       .  S
C605        C817   1.488       .  S
C606        C829   1.491       .  S
C607        C805   1.469       .  S
C608        C781   1.483       .  S
H609        O610   0.966       .  S
H611        O612   0.966       .  S
O612      Eu2610   2.356       .  S
O612      Eu2614   2.353       .  S
O613        C624   1.291       .  A
O613       Eu649   2.458       .  S
O614        C625   1.293       .  A
O614       Eu648   2.468       .  S
O615        C626   1.292       .  A
O615       Eu621   2.462       .  S
O616        C627   1.290       .  A
O616      Eu1629   2.453   1_545  S
O617        C627   1.292       .  A
O617       Eu651   2.460       .  S
O618        C626   1.291       .  A
O618       Eu650   2.455       .  S
O619        C625   1.290       .  A
O619       Eu621   2.456       .  S
O620        C624   1.292       .  A
O620       Eu621   2.460       .  S
Eu621      O1624   2.460       .  S
Eu621      O1639   2.348       .  S
Eu621       O623   2.349       .  S
Eu621      O1630   2.351       .  S
Eu621       O629   2.353       .  S
O622      Eu1629   2.355   1_545  S
O622       Eu651   2.349       .  S
O622      Eu1656   2.349   1_545  S
O623       Eu649   2.348       .  S
O623       Eu650   2.351       .  S
C624       C1957   1.489       .  S
C625       C1948   1.490       .  S
C626        C736   1.486       .  S
C627        C724   1.485       .  S
H628        O629   0.966       .  S
O629       Eu650   2.362       .  S
O629       Eu648   2.352       .  S
H630        O631   0.966       .  S
O631      Eu1629   2.348   1_545  S
O631      Eu1657   2.352       .  S
O631       Eu651   2.360       .  S
O632        C655   1.292       .  A
O632       Eu648   2.459       .  S
O633        C656   1.291       .  A
O633       Eu649   2.454       .  S
O634        C657   1.290       .  A
O634       Eu650   2.453       .  S
O635        C658   1.293       .  A
O635       Eu651   2.469       .  S
O636        C659   1.292       .  A
O636       Eu651   2.456       .  S
O637        C660   1.293       .  A
O637       Eu650   2.469       .  S
O638        C661   1.287       .  A
O638       Eu652   2.439       .  S
O639        C662   1.288       .  A
O639      Eu1660   2.439   1_545  S
O640        C661   1.293       .  A
O640       Eu650   2.468       .  S
O641        C662   1.294       .  A
O641       Eu651   2.470       .  S
O642        C657   1.291       .  A
O642       Eu648   2.458       .  S
O643        C660   1.292       .  A
O643       Eu649   2.460       .  S
O644        C659   1.290       .  A
O644      Eu1657   2.449       .  S
O645        C658   1.289       .  A
O645      Eu1656   2.443   1_545  S
O646        C655   1.290       .  A
O646       Eu652   2.453       .  S
O647        C656   1.290       .  A
O647       Eu652   2.452       .  S
Eu648      O1653   2.463       .  S
Eu648      O1630   2.349       .  S
Eu648      O1674   2.353       .  S
Eu648       O654   2.359       .  S
Eu649      O1652   2.458       .  S
Eu649      O1639   2.346       .  S
Eu649      O1661   2.355       .  S
Eu649       O664   2.351       .  S
Eu650       O664   2.348       .  S
Eu650       O654   2.354       .  S
Eu651       O653   2.350       .  S
Eu651       O666   2.349       .  S
Eu652      O1647   2.435       .  S
Eu652      O1661   2.351       .  S
Eu652       O664   2.351       .  S
Eu652      O1674   2.351       .  S
Eu652       O654   2.350       .  S
O653      Eu1657   2.345       .  S
O653      Eu1660   2.343   1_545  S
C655       C1933   1.486       .  S
C656       C1924   1.483       .  S
C657        C808   1.472       .  S
C658        C796   1.481       .  S
C659        C772   1.480       .  S
C660        C784   1.483       .  S
C661        C745   1.478       .  S
C662        C757   1.487       .  S
H663        O664   0.966       .  S
H665        O666   0.966       .  S
O666      Eu1656   2.351   1_545  S
O666      Eu1660   2.357   1_545  S
O667        C678   1.292   1_554  A
O667       Eu703   2.458       .  S
O668        C679   1.291       .  A
O668       Eu702   2.463       .  S
O669        C680   1.293       .  A
O670        C681   1.293       .  A
O670       Eu675   2.467   1_556  S
O671        C681   1.288       .  A
O671       Eu705   2.439       .  S
O672        C680   1.289       .  A
O672       Eu704   2.448       .  S
O673        C679   1.291       .  A
O673       Eu675   2.450       .  S
O674        C678   1.290       .  A
O674       Eu675   2.451   1_556  S
Eu675       O685   2.352   1_554  S
Eu675       O676   2.351   1_554  S
O676       Eu705   2.347       .  S
O676       Eu702   2.345   1_556  S
O677       Eu704   2.349       .  S
C680        C832   1.490       .  S
C681        C844   1.482       .  S
H682        O683   0.966       .  S
O683       Eu704   2.358       .  S
H684        O685   0.966       .  S
O685       Eu703   2.353   1_556  S
O685       Eu705   2.353       .  S
O686        C709   1.291       .  A
O686       Eu702   2.451       .  S
O687        C710   1.290   1_554  A
O687       Eu703   2.454       .  S
O688        C711   1.291       .  A
O688       Eu704   2.456       .  S
O689        C712   1.292       .  A
O689       Eu705   2.461       .  S
O690        C713   1.290       .  A
O690       Eu705   2.450       .  S
O691        C714   1.291       .  A
O691       Eu704   2.457       .  S
O692        C715   1.294       .  A
O693        C716   1.293       .  A
O693       Eu706   2.471       .  S
O694        C715   1.291       .  A
O694       Eu704   2.459       .  S
O695        C716   1.289       .  A
O695       Eu705   2.446       .  S
O696        C711   1.293       .  A
O697        C714   1.292       .  A
O698        C713   1.293       .  A
O698       Eu703   2.463   1_556  S
O699        C712   1.288       .  A
O699       Eu702   2.438   1_556  S
O700        C709   1.289   1_556  A
O700       Eu706   2.444       .  S
O701        C710   1.290       .  A
O701       Eu706   2.447       .  S
Eu702       O720   2.354   1_554  S
Eu703       O707   2.350   1_554  S
Eu704       O718   2.351       .  S
Eu704       O708   2.346       .  S
Eu705       O707   2.346       .  S
Eu705       O720   2.344       .  S
Eu706       O707   2.343       .  S
Eu706       O720   2.351       .  S
C711        C733   1.488       .  S
C712        C748   1.476       .  S
C713        C760   1.487       .  S
C714        C721   1.487       .  S
C715        C820   1.489       .  S
C716        C856   1.484       .  S
H717        O718   0.966       .  S
H719        O720   0.966       .  S
C721        C722   1.406       .  A
C721        C726   1.416       .  A
C722        C723   1.401       .  A
C722        H727   1.085       .  S
C723        C724   1.415       .  A
C723        C730   1.445       .  S
C724        C725   1.404       .  A
C725        C726   1.400       .  A
C725        H728   1.085       .  S
C726        C729   1.445       .  S
C729        N731   1.157       .  T
C730        N732   1.157       .  T
C733        C734   1.407       .  A
C733        C738   1.414       .  A
C734        C735   1.402       .  A
C734        H739   1.085       .  S
C735        C736   1.415       .  A
C735        C742   1.445       .  S
C736        C737   1.405       .  A
C737        C738   1.401       .  A
C737        H740   1.085       .  S
C738        C741   1.444       .  S
C741        N743   1.157       .  T
C742        N744   1.158       .  T
C745        C746   1.403       .  A
C745        C750   1.416       .  A
C746        C747   1.397       .  A
C746        H751   1.085       .  S
C747        C748   1.410       .  A
C747        C754   1.443       .  S
C748        C749   1.404       .  A
C749        C750   1.400       .  A
C749        H752   1.085       .  S
C750        C753   1.446       .  S
C753        N755   1.158       .  T
C754        N756   1.157       .  T
C757        C758   1.404       .  A
C757        C762   1.418       .  A
C758        C759   1.400       .  A
C758        H763   1.085       .  S
C759        C760   1.417       .  A
C759        C766   1.445       .  S
C760        C761   1.404       .  A
C761        C762   1.399       .  A
C761        H764   1.085       .  S
C762        C765   1.445       .  S
C765        N767   1.158       .  T
C766        N768   1.157       .  T
C769        C770   1.403       .  A
C769        C774   1.415       .  A
C770        C771   1.398       .  A
C770        H775   1.084       .  S
C771        C772   1.414       .  A
C771        C778   1.445       .  S
C772        C773   1.404       .  A
C773        C774   1.400       .  A
C773        H776   1.085       .  S
C774        C777   1.445       .  S
C777        N779   1.157       .  T
C778        N780   1.157       .  T
C781        C782   1.405       .  A
C781        C786   1.412       .  A
C782        C783   1.403       .  A
C782        H787   1.085       .  S
C783        C784   1.413       .  A
C783        C790   1.444       .  S
C784        C785   1.404       .  A
C785        C786   1.402       .  A
C785        H788   1.085       .  S
C786        C789   1.443       .  S
C789        N791   1.157       .  T
C790        N792   1.157       .  T
C793        C794   1.403       .  A
C793        C798   1.416       .  A
C794        C795   1.397       .  A
C794        H799   1.085       .  S
C795        C796   1.412       .  A
C795        C802   1.444       .  S
C796        C797   1.406       .  A
C797        C798   1.402       .  A
C797        H800   1.085       .  S
C798        C801   1.446       .  S
C801        N803   1.158       .  T
C802        N804   1.157       .  T
C805        C806   1.401       .  A
C805        C810   1.409       .  A
C806        C807   1.398       .  A
C806        H811   1.085       .  S
C807        C808   1.411       .  A
C807        C814   1.444       .  S
C808        C809   1.403       .  A
C809        C810   1.401       .  A
C809        H812   1.085       .  S
C810        C813   1.443       .  S
C813        N815   1.157       .  T
C814        N816   1.157       .  T
C817        C818   1.405       .  A
C817        C822   1.415       .  A
C818        C819   1.404       .  A
C818        H823   1.085       .  S
C819        C820   1.416       .  A
C819        C826   1.444       .  S
C820        C821   1.405       .  A
C821        C822   1.402       .  A
C821        H824   1.085       .  S
C822        C825   1.445       .  S
C825        N827   1.157       .  T
C826        N828   1.157       .  T
C829        C830   1.406       .  A
C829        C834   1.420       .  A
C830        C831   1.401       .  A
C830        H835   1.085       .  S
C831        C832   1.418       .  A
C831        C838   1.445       .  S
C832        C833   1.404       .  A
C833        C834   1.398       .  A
C833        H836   1.085       .  S
C834        C837   1.446       .  S
C837        N839   1.158       .  T
C838        N840   1.157       .  T
C841        C842   1.405       .  A
C841        C846   1.416       .  A
C842        C843   1.401       .  A
C842        H847   1.085       .  S
C843        C844   1.415       .  A
C843        C850   1.445       .  S
C844        C845   1.403       .  A
C845        C846   1.402       .  A
C845        H848   1.085       .  S
C846        C849   1.444       .  S
C849        N851   1.157       .  T
C850        N852   1.157       .  T
C853        C854   1.403       .  A
C853        C858   1.412       .  A
C854        C855   1.400       .  A
C854        H859   1.085       .  S
C855        C856   1.416       .  A
C855        C862   1.444       .  S
C856        C857   1.404       .  A
C857        C858   1.402       .  A
C857        H860   1.085       .  S
C858        C861   1.442       .  S
C861        N863   1.156       .  T
C862        N864   1.157       .  T
C865        C870   1.415       .  A
C866        C867   1.397       .  A
C866        H871   1.085       .  S
C867        C874   1.445       .  S
C868        C869   1.405       .  A
C869        C870   1.400       .  A
C869        H872   1.085       .  S
C870        C873   1.445       .  S
C873        N875   1.157       .  T
C874        N876   1.157       .  T
C877        C878   1.406       .  A
C878        C879   1.401       .  A
C878        H883   1.085       .  S
C879        C880   1.414       .  A
C879        C886   1.445       .  S
C881        C882   1.398       .  A
C881        H884   1.085       .  S
C882        C885   1.445       .  S
C885        N887   1.157       .  T
C886        N888   1.157       .  T
C889        C890   1.403       .  A
C890        C891   1.403       .  A
C890        H895   1.085       .  S
C891        C892   1.415       .  A
C891        C898   1.444       .  S
C893        C894   1.401       .  A
C893        H896   1.084       .  S
C894        C897   1.446       .  S
C897        N899   1.158       .  T
C898        N900   1.157       .  T
C901        C902   1.404       .  A
C902        C903   1.397       .  A
C902        H907   1.085       .  S
C903        C904   1.413       .  A
C903        C910   1.445       .  S
C905        C906   1.400       .  A
C905        H908   1.085       .  S
C906        C909   1.445       .  S
C909        N911   1.157       .  T
C910        N912   1.157       .  T
C913        C914   1.407       .  A
C913       C1926   1.414   1_545  A
C914        C915   1.406       .  A
C914        H919   1.085       .  S
C915        C916   1.414       .  A
C915        C922   1.444       .  S
C916       C1664   1.483       .  S
C916       C1925   1.402   1_545  A
C917       C1924   1.404       .  A
C917        C918   1.399       .  A
C917        H920   1.085       .  S
C918       C1921   1.416       .  A
C918        C921   1.444       .  S
C921        N923   1.157       .  T
C922        N924   1.157       .  T
C925       C1663   1.487       .  S
C925       C1934   1.404   1_565  A
C925        C930   1.417       .  A
C926       C1933   1.405       .  A
C926        C927   1.400       .  A
C926        H931   1.085       .  S
C927       C1936   1.416       .  A
C927        C934   1.445       .  S
C928       C1935   1.415       .  A
C928        C929   1.405   1_545  A
C929        C930   1.402       .  A
C929        H932   1.085       .  S
C930        C933   1.445       .  S
C933        N935   1.157       .  T
C934        N936   1.157       .  T
C937       C1946   1.406   1_545  A
C937        C942   1.415       .  A
C938       C1945   1.404       .  A
C938        C939   1.400       .  A
C938        H943   1.085       .  S
C939       C1948   1.416       .  A
C939        C946   1.444       .  S
C940       C1633   1.486       .  S
C940       C1947   1.417       .  A
C940        C941   1.404   1_565  A
C941        C942   1.400       .  A
C941        H944   1.085       .  S
C942        C945   1.444       .  S
C945        N947   1.157       .  T
C946        N948   1.157       .  T
C949       C1632   1.488       .  S
C949        C950   1.407       .  A
C949       C1962   1.417   1_565  A
C950        C951   1.402       .  A
C950        H955   1.085       .  S
C951        C952   1.417       .  A
C951        C958   1.446       .  S
C952       C1961   1.404   1_565  A
C953       C1960   1.404       .  A
C953        C954   1.400       .  A
C953        H956   1.085       .  S
C954       C1957   1.417       .  A
C954        C957   1.445       .  S
C957        N959   1.157       .  T
C958        N960   1.158       .  T
C961        C962   1.405   1_655  A
C961       C2982   1.419       .  A
C962        C963   1.396       .  A
C962        H967   1.085       .  S
C963        C964   1.418   1_455  A
C963        C970   1.446       .  S
C964       C2981   1.405       .  A
C965       C2980   1.406       .  A
C965        C966   1.397       .  A
C965        H968   1.085       .  S
C966       C2977   1.418       .  A
C966        C969   1.445       .  S
C969        N971   1.157       .  T
C970        N972   1.158       .  T
C973       C2990   1.405   1_655  A
C973        C978   1.415       .  A
C974       C2989   1.405       .  A
C974        C975   1.397       .  A
C974        H979   1.085       .  S
C975       C2992   1.418       .  A
C975        C982   1.445       .  S
C976       C2991   1.416       .  A
C976        C977   1.406   1_455  A
C977        C978   1.401       .  A
C977        H980   1.085       .  S
C978        C981   1.445       .  S
C981        N983   1.157       .  T
C982        N984   1.157       .  T
C985       C3002   1.405       .  A
C985        C990   1.415   1_455  A
C986       C3001   1.404       .  A
C986        C987   1.399       .  A
C986        H991   1.085       .  S
C987       C3004   1.417       .  A
C987        C994   1.446       .  S
C988       C3003   1.417       .  A
C988        C989   1.403   1_455  A
C989        C990   1.398       .  A
C989        H992   1.085       .  S
C990        C993   1.444       .  S
C993        N995   1.157       .  T
C994        N996   1.158       .  T
C997       C3014   1.402   1_455  A
C997       C1002   1.412       .  A
C998       C3013   1.401       .  A
C998        C999   1.397       .  A
C998       H1003   1.085       .  S
C999       C3016   1.409       .  A
C999       C1006   1.444       .  S
C1000      C3015   1.410   1_455  A
C1000      C1001   1.403       .  A
C1001      C1002   1.401       .  A
C1001      H1004   1.085       .  S
C1002      C1005   1.444       .  S
C1005      N1007   1.157       .  T
C1006      N1008   1.157       .  T
O1009      C1020   1.291       .  A
O1009     Eu1045   2.452   1_455  S
O1010      C1021   1.291       .  A
O1010     Eu1044   2.454       .  S
O1011      C1022   1.292       .  A
O1011     Eu1017   2.458       .  S
O1012      C1023   1.290       .  A
O1012     Eu3033   2.453       .  S
O1013      C1023   1.291       .  A
O1013     Eu1047   2.450       .  S
O1014      C1022   1.289       .  A
O1014     Eu1046   2.449       .  S
O1015      C1021   1.291       .  A
O1015     Eu1521   2.455       .  S
O1016      C1020   1.287       .  A
O1016     Eu1017   2.437       .  S
Eu1017     O3028   2.454   1_455  S
Eu1017     O1519   2.446   1_454  S
Eu1017     O3043   2.354   1_455  S
Eu1017     O1019   2.344       .  S
Eu1017     O3538   2.348   1_454  S
Eu1017     O1529   2.347   1_554  S
O1018     Eu3537   2.357       .  S
O1018     Eu1551   2.347       .  S
O1018     Eu3060   2.350       .  S
O1019     Eu1045   2.351   1_455  S
O1019     Eu1046   2.348       .  S
C1020      C1501   1.472       .  S
C1021      C1468   1.491       .  S
C1022      C1408   1.484       .  S
C1023      C1384   1.485       .  S
H1024      O1025   0.966       .  S
O1025     Eu1521   2.353   1_455  S
O1025     Eu1550   2.358       .  S
O1025     Eu1044   2.362   1_455  S
H1026      O1027   0.966       .  S
O1027     Eu3033   2.350   1_554  S
O1027     Eu3061   2.350       .  S
O1027     Eu1047   2.355   1_554  S
O1028      C1051   1.295       .  A
O1029      C1052   1.288       .  A
O1030      C1053   1.294       .  A
O1030     Eu1550   2.469       .  S
O1031      C1054   1.291       .  A
O1031     Eu1551   2.462       .  S
O1032      C1055   1.291       .  A
O1032     Eu1047   2.457   1_554  S
O1033      C1056   1.292       .  A
O1033     Eu1046   2.462       .  S
O1034      C1057   1.292       .  A
O1034     Eu1048   2.466   1_456  S
O1035      C1058   1.289       .  A
O1035     Eu3064   2.442   1_556  S
O1036      C1057   1.289   1_554  A
O1037      C1058   1.291       .  A
O1038      C1053   1.289       .  A
O1038     Eu1044   2.446   1_455  S
O1039      C1056   1.291       .  A
O1039     Eu1045   2.457   1_455  S
O1040      C1055   1.293       .  A
O1040     Eu3061   2.470       .  S
O1041      C1054   1.293       .  A
O1041     Eu3060   2.468       .  S
O1042      C1051   1.290   1_455  A
O1042     Eu1552   2.452       .  S
O1043      C1052   1.292       .  A
O1043     Eu1048   2.464       .  S
Eu1044     O3057   2.471       .  S
Eu1044     O3034   2.346       .  S
Eu1044     O2070   2.345       .  S
Eu1045     O3056   2.469       .  S
Eu1045     O3043   2.349       .  S
Eu1045     O2057   2.348       .  S
Eu1046     O1534   2.467   1_554  S
Eu1046     O1529   2.354   1_554  S
Eu1047     O1535   2.468       .  S
Eu1047     O1522   2.345       .  S
Eu1048     O3051   2.446   1_554  S
Eu1048     O1546   2.437   1_554  S
Eu1048     O3065   2.350       .  S
Eu1048     O1060   2.343   1_655  S
Eu1048     O3582   2.361   1_554  S
Eu1048     O1554   2.349   1_654  S
O1049     Eu2053   2.350       .  S
O1049     Eu3064   2.348       .  S
O1050     Eu1552   2.352       .  S
C1051      C1477   1.492       .  S
C1052      C1492   1.480       .  S
C1053      C1432   1.489       .  S
C1054      C1417   1.488       .  S
C1055      C1456   1.486       .  S
C1056      C1441   1.483       .  S
C1057      C1393   1.475       .  S
C1058      C1369   1.478       .  S
H1059      O1060   0.965       .  S
H1061      O1062   0.966       .  S
O1062     Eu2052   2.349   1_565  S
O1062     Eu3568   2.359       .  S
O1063      C1074   1.289       .  A
O1063     Eu1099   2.447       .  S
O1064      C1075   1.294       .  A
O1064     Eu1098   2.469       .  S
O1065      C1076   1.292       .  A
O1065     Eu1071   2.465   1_455  S
O1066      C1077   1.293       .  A
O1066     Eu3087   2.467       .  S
O1067      C1077   1.286       .  A
O1067     Eu1101   2.429       .  S
O1068      C1076   1.291       .  A
O1068     Eu1100   2.451       .  S
O1069      C1075   1.289       .  A
O1069     Eu1071   2.448       .  S
O1070      C1074   1.287       .  A
O1070     Eu1071   2.438       .  S
Eu1071     O3082   2.469       .  S
Eu1071     O3097   2.349       .  S
Eu1071     O1073   2.350   1_655  S
Eu1071     O3088   2.349       .  S
Eu1071     O1079   2.353   1_655  S
O1072     Eu3087   2.350       .  S
O1072     Eu1101   2.356       .  S
O1072     Eu3114   2.350       .  S
O1073     Eu1099   2.350   1_455  S
O1073     Eu1100   2.359       .  S
C1074      C1504   1.472       .  S
C1075      C1465   1.492       .  S
C1076      C1297   1.483       .  S
C1077      C1273   1.475       .  S
H1078      O1079   0.966       .  S
O1079     Eu1100   2.356       .  S
O1079     Eu1098   2.349   1_455  S
H1080      O1081   0.966       .  S
O1081     Eu3087   2.348       .  S
O1081     Eu3115   2.345       .  S
O1081     Eu1101   2.355       .  S
O1082      C1105   1.294       .  A
O1082     Eu1098   2.470       .  S
O1083      C1106   1.289       .  A
O1083     Eu1099   2.446       .  S
O1084      C1107   1.295       .  A
O1084     Eu1100   2.480       .  S
O1085      C1108   1.293       .  A
O1085     Eu1101   2.464       .  S
O1086      C1109   1.293       .  A
O1086     Eu1101   2.468       .  S
O1087      C1110   1.294       .  A
O1087     Eu1100   2.468       .  S
O1088      C1111   1.290       .  A
O1088     Eu1102   2.453   1_455  S
O1089      C1112   1.289       .  A
O1089     Eu3118   2.448       .  S
O1090      C1111   1.292       .  A
O1090     Eu1100   2.464       .  S
O1091      C1112   1.291       .  A
O1091     Eu1101   2.455       .  S
O1092      C1107   1.291       .  A
O1092     Eu1098   2.455   1_455  S
O1093      C1110   1.290       .  A
O1093     Eu1099   2.451   1_455  S
O1094      C1109   1.289       .  A
O1094     Eu3115   2.449       .  S
O1095      C1108   1.290       .  A
O1095     Eu3114   2.452       .  S
O1096      C1105   1.289       .  A
O1096     Eu1102   2.444       .  S
O1097      C1106   1.292       .  A
O1097     Eu1102   2.463       .  S
Eu1098     O3111   2.453       .  S
Eu1098     O3088   2.348       .  S
Eu1098     O3132   2.358       .  S
Eu1098     O1104   2.350   1_655  S
Eu1099     O3110   2.452       .  S
Eu1099     O3097   2.347       .  S
Eu1099     O3119   2.348       .  S
Eu1099     O1114   2.355   1_655  S
Eu1100     O1114   2.358       .  S
Eu1100     O1104   2.342       .  S
Eu1101     O1103   2.344       .  S
Eu1101     O1116   2.350       .  S
Eu1102     O3105   2.441       .  S
Eu1102     O3119   2.343       .  S
Eu1102     O1114   2.344   1_655  S
Eu1102     O3132   2.356       .  S
Eu1102     O1104   2.350   1_655  S
O1103     Eu3115   2.347       .  S
O1103     Eu3118   2.342       .  S
C1105      C1480   1.489   1_655  S
C1106      C1489   1.481       .  S
C1107      C1345   1.494       .  S
C1108      C1357   1.484       .  S
C1109      C1321   1.485       .  S
C1110      C1333   1.493       .  S
C1111      C1309   1.482       .  S
C1112      C1285   1.493       .  S
H1113      O1114   0.966       .  S
H1115      O1116   0.966       .  S
O1116     Eu3114   2.361       .  S
O1116     Eu3118   2.355       .  S
O1117      C1128   1.292   1_545  A
O1117     Eu1153   2.464   1_545  S
O1118      C1129   1.292       .  A
O1118     Eu1152   2.461       .  S
O1119      C1130   1.290       .  A
O1119     Eu1125   2.445   1_565  S
O1120      C1131   1.292       .  A
O1121      C1131   1.291       .  A
O1121     Eu1155   2.456       .  S
O1122      C1130   1.289       .  A
O1122     Eu1154   2.448       .  S
O1123      C1129   1.290       .  A
O1123     Eu1125   2.453       .  S
O1124      C1128   1.292       .  A
O1124     Eu1125   2.464   1_565  S
Eu1125     O1127   2.344   1_545  S
Eu1125     O1133   2.357   1_545  S
O1126     Eu1155   2.349       .  S
O1127     Eu1153   2.345       .  S
O1127     Eu1154   2.350       .  S
C1130      C1240   1.483       .  S
C1131      C1228   1.483       .  S
H1132      O1133   0.964       .  S
O1133     Eu1154   2.354       .  S
O1133     Eu1152   2.352   1_565  S
H1134      O1135   0.966       .  S
O1135     Eu1155   2.355       .  S
O1136      C1159   1.292       .  A
O1136     Eu1152   2.459       .  S
O1137      C1160   1.294       .  A
O1137     Eu1153   2.472   1_545  S
O1138      C1161   1.293       .  A
O1138     Eu1154   2.467       .  S
O1139      C1162   1.292       .  A
O1139     Eu1155   2.460       .  S
O1140      C1163   1.291       .  A
O1140     Eu1155   2.453       .  S
O1141      C1164   1.290       .  A
O1141     Eu1154   2.451       .  S
O1142      C1165   1.290       .  A
O1142     Eu1156   2.453   1_565  S
O1143      C1166   1.288       .  A
O1144      C1165   1.292       .  A
O1144     Eu1154   2.461       .  S
O1145      C1166   1.292       .  A
O1145     Eu1155   2.461       .  S
O1146      C1161   1.290       .  A
O1146     Eu1152   2.453   1_565  S
O1147      C1164   1.293       .  A
O1147     Eu1153   2.457       .  S
O1148      C1163   1.291       .  A
O1149      C1162   1.291       .  A
O1150      C1159   1.290   1_565  A
O1150     Eu1156   2.451   1_565  S
O1151      C1160   1.292       .  A
O1151     Eu1156   2.465       .  S
Eu1152     O1158   2.353   1_545  S
Eu1153     O1168   2.356       .  S
Eu1154     O1168   2.356       .  S
Eu1154     O1158   2.342       .  S
Eu1155     O1157   2.351       .  S
Eu1155     O1170   2.352       .  S
Eu1156     O1168   2.348   1_545  S
Eu1156     O1158   2.347   1_545  S
C1161      C1312   1.481       .  S
C1162      C1300   1.484       .  S
C1163      C1276   1.478       .  S
C1164      C1288   1.492       .  S
C1165      C1249   1.484       .  S
C1166      C1261   1.480       .  S
H1167      O1168   0.965       .  S
H1169      O1170   0.966       .  S
O1171      C1182   1.293       .  A
O1171     Eu1207   2.460       .  S
O1172      C1183   1.292       .  A
O1172     Eu1206   2.468       .  S
O1173      C1184   1.294       .  A
O1173     Eu1683   2.466   1_554  S
O1174      C1185   1.293       .  A
O1174     Eu1179   2.465       .  S
O1175      C1185   1.292       .  A
O1175     Eu1209   2.465       .  S
O1176      C1184   1.290       .  A
O1176     Eu1208   2.453       .  S
O1177      C1183   1.292       .  A
O1177     Eu1179   2.462       .  S
O1178      C1182   1.289       .  A
O1178     Eu1179   2.447       .  S
Eu1179     O1677   2.456       .  S
Eu1179     O1189   2.349       .  S
Eu1179     O1685   2.356       .  S
Eu1179     O1180   2.350       .  S
Eu1179     O1691   2.353       .  S
O1180     Eu1209   2.344       .  S
O1180     Eu1206   2.349       .  S
O1181     Eu1683   2.360   1_554  S
O1181     Eu1711   2.350       .  S
O1181     Eu1208   2.351       .  S
C1182      C1909   1.480       .  S
C1183      C1900   1.481       .  S
C1184      C1336   1.495       .  S
C1185      C1348   1.494       .  S
H1186      O1187   0.966       .  S
O1187     Eu1683   2.355   1_554  S
O1187     Eu1208   2.356       .  S
O1187     Eu1710   2.351   1_554  S
H1188      O1189   0.966       .  S
O1189     Eu1207   2.354       .  S
O1189     Eu1209   2.350       .  S
O1190      C1213   1.293       .  A
O1190     Eu1206   2.465       .  S
O1191      C1214   1.289       .  A
O1191     Eu1207   2.447       .  S
O1192      C1215   1.291       .  A
O1192     Eu1208   2.452       .  S
O1193      C1216   1.291       .  A
O1193     Eu1209   2.458       .  S
O1194      C1217   1.288       .  A
O1194     Eu1209   2.439       .  S
O1195      C1218   1.292       .  A
O1195     Eu1208   2.464       .  S
O1196      C1219   1.291       .  A
O1196     Eu1714   2.456   1_554  S
O1197      C1220   1.293       .  A
O1197     Eu1210   2.463       .  S
O1198      C1219   1.290       .  A
O1198     Eu1208   2.454       .  S
O1199      C1220   1.289       .  A
O1199     Eu1209   2.447       .  S
O1200      C1215   1.289       .  A
O1200     Eu1710   2.446   1_554  S
O1201      C1218   1.293       .  A
O1201     Eu1711   2.471       .  S
O1202      C1217   1.293       .  A
O1202     Eu1207   2.463       .  S
O1203      C1216   1.292       .  A
O1203     Eu1206   2.462       .  S
O1204      C1213   1.288       .  A
O1204     Eu1210   2.442       .  S
O1205      C1214   1.291       .  A
O1205     Eu1210   2.458       .  S
Eu1206     O1704   2.459       .  S
Eu1206     O1691   2.359       .  S
Eu1206     O1224   2.352       .  S
Eu1206     O1716   2.353       .  S
Eu1207     O1705   2.469       .  S
Eu1207     O1685   2.350       .  S
Eu1207     O1211   2.350       .  S
Eu1207     O1726   2.353       .  S
Eu1208     O1222   2.347       .  S
Eu1208     O1212   2.346       .  S
Eu1209     O1211   2.355       .  S
Eu1209     O1224   2.353       .  S
Eu1210     O1700   2.472       .  S
Eu1210     O1211   2.348       .  S
Eu1210     O1726   2.347       .  S
Eu1210     O1224   2.361       .  S
Eu1210     O1716   2.348       .  S
O1212     Eu1710   2.352   1_554  S
O1212     Eu1714   2.352   1_554  S
C1213      C1876   1.483       .  S
C1214      C1885   1.479       .  S
C1215      C1237   1.483       .  S
C1216      C1252   1.484       .  S
C1217      C1264   1.477       .  S
C1218      C1225   1.485       .  S
C1219      C1324   1.484       .  S
C1220      C1360   1.484       .  S
H1221      O1222   0.966       .  S
O1222     Eu1711   2.348       .  S
O1222     Eu1714   2.350   1_554  S
H1223      O1224   0.966       .  S
C1225      C1226   1.405       .  A
C1225      C1230   1.415       .  A
C1226      C1227   1.402       .  A
C1226      H1231   1.085       .  S
C1227      C1228   1.413       .  A
C1227      C1234   1.444       .  S
C1228      C1229   1.405       .  A
C1229      C1230   1.403       .  A
C1229      H1232   1.085       .  S
C1230      C1233   1.444       .  S
C1233      N1235   1.157       .  T
C1234      N1236   1.157       .  T
C1237      C1238   1.405       .  A
C1237      C1242   1.415       .  A
C1238      C1239   1.396       .  A
C1238      H1243   1.085       .  S
C1239      C1240   1.414       .  A
C1239      C1246   1.445       .  S
C1240      C1241   1.406       .  A
C1241      C1242   1.399       .  A
C1241      H1244   1.085       .  S
C1242      C1245   1.445       .  S
C1245      N1247   1.158       .  T
C1246      N1248   1.157       .  T
C1249      C1250   1.405       .  A
C1249      C1254   1.415       .  A
C1250      C1251   1.402       .  A
C1250      H1255   1.085       .  S
C1251      C1252   1.414       .  A
C1251      C1258   1.444       .  S
C1252      C1253   1.405       .  A
C1253      C1254   1.401       .  A
C1253      H1256   1.085       .  S
C1254      C1257   1.445       .  S
C1257      N1259   1.157       .  T
C1258      N1260   1.157       .  T
C1261      C1262   1.404       .  A
C1261      C1266   1.415       .  A
C1262      C1263   1.399       .  A
C1262      H1267   1.085       .  S
C1263      C1264   1.414       .  A
C1263      C1270   1.444       .  S
C1264      C1265   1.401       .  A
C1265      C1266   1.397       .  A
C1265      H1268   1.085       .  S
C1266      C1269   1.444       .  S
C1269      N1271   1.157       .  T
C1270      N1272   1.157       .  T
C1273      C1274   1.400       .  A
C1273      C1278   1.414       .  A
C1274      C1275   1.396       .  A
C1274      H1279   1.083       .  S
C1275      C1276   1.413       .  A
C1275      C1282   1.443       .  S
C1276      C1277   1.405       .  A
C1277      C1278   1.400       .  A
C1277      H1280   1.085       .  S
C1278      C1281   1.446       .  S
C1281      N1283   1.158       .  T
C1282      N1284   1.157       .  T
C1285      C1286   1.407       .  A
C1285      C1290   1.418       .  A
C1286      C1287   1.401       .  A
C1286      H1291   1.085       .  S
C1287      C1288   1.419       .  A
C1287      C1294   1.445       .  S
C1288      C1289   1.406       .  A
C1289      C1290   1.398       .  A
C1289      H1292   1.085       .  S
C1290      C1293   1.445       .  S
C1293      N1295   1.157       .  T
C1294      N1296   1.157       .  T
C1297      C1298   1.404       .  A
C1297      C1302   1.413       .  A
C1298      C1299   1.400       .  A
C1298      H1303   1.085       .  S
C1299      C1300   1.414       .  A
C1299      C1306   1.445       .  S
C1300      C1301   1.406       .  A
C1301      C1302   1.402       .  A
C1301      H1304   1.085       .  S
C1302      C1305   1.445       .  S
C1305      N1307   1.157       .  T
C1306      N1308   1.157       .  T
C1309      C1310   1.404       .  A
C1309      C1314   1.413       .  A
C1310      C1311   1.401       .  A
C1310      H1315   1.085       .  S
C1311      C1312   1.413       .  A
C1311      C1318   1.444       .  S
C1312      C1313   1.404       .  A
C1313      C1314   1.402       .  A
C1313      H1316   1.085       .  S
C1314      C1317   1.444       .  S
C1317      N1319   1.157       .  T
C1318      N1320   1.157       .  T
C1321      C1322   1.404       .  A
C1321      C1326   1.417       .  A
C1322      C1323   1.400       .  A
C1322      H1327   1.085       .  S
C1323      C1324   1.414       .  A
C1323      C1330   1.444       .  S
C1324      C1325   1.404       .  A
C1325      C1326   1.401       .  A
C1325      H1328   1.085       .  S
C1326      C1329   1.445       .  S
C1329      N1331   1.157       .  T
C1330      N1332   1.157       .  T
C1333      C1334   1.405       .  A
C1333      C1338   1.418       .  A
C1334      C1335   1.400       .  A
C1334      H1339   1.085       .  S
C1335      C1336   1.419       .  A
C1335      C1342   1.445       .  S
C1336      C1337   1.407       .  A
C1337      C1338   1.401       .  A
C1337      H1340   1.085       .  S
C1338      C1341   1.446       .  S
C1341      N1343   1.158       .  T
C1342      N1344   1.158       .  T
C1345      C1346   1.406       .  A
C1345      C1350   1.418       .  A
C1346      C1347   1.404       .  A
C1346      H1351   1.085       .  S
C1347      C1348   1.417       .  A
C1347      C1354   1.445       .  S
C1348      C1349   1.406       .  A
C1349      C1350   1.403       .  A
C1349      H1352   1.085       .  S
C1350      C1353   1.445       .  S
C1353      N1355   1.157       .  T
C1354      N1356   1.157       .  T
C1357      C1358   1.404       .  A
C1357      C1362   1.415       .  A
C1358      C1359   1.399       .  A
C1358      H1363   1.085       .  S
C1359      C1360   1.416       .  A
C1359      C1366   1.445       .  S
C1360      C1361   1.405       .  A
C1361      C1362   1.400       .  A
C1361      H1364   1.085       .  S
C1362      C1365   1.444       .  S
C1365      N1367   1.157       .  T
C1366      N1368   1.157       .  T
C1369      C1874   1.404   1_556  A
C1369      C1374   1.413       .  A
C1370      C1873   1.405       .  A
C1370      C1371   1.400       .  A
C1370      H1375   1.085       .  S
C1371      C1876   1.416       .  A
C1371      C1378   1.445       .  S
C1372      C1717   1.480       .  S
C1372      C1875   1.415   1_556  A
C1372      C1373   1.405       .  A
C1373      C1374   1.399       .  A
C1373      H1376   1.085       .  S
C1374      C1377   1.445       .  S
C1377      N1379   1.157       .  T
C1378      N1380   1.157       .  T
C1381      C1718   1.486       .  S
C1381      C1382   1.407       .  A
C1381      C1890   1.415   1_554  A
C1382      C1383   1.401       .  A
C1382      H1387   1.085       .  S
C1383      C1384   1.415   1_554  A
C1383      C1390   1.446       .  S
C1384      C1889   1.405       .  A
C1385      C1888   1.404       .  A
C1385      C1386   1.397       .  A
C1385      H1388   1.085       .  S
C1386      C1885   1.413       .  A
C1386      C1389   1.445       .  S
C1389      N1391   1.157       .  T
C1390      N1392   1.158       .  T
C1393      C1394   1.402   1_556  A
C1393      C1902   1.410       .  A
C1394      C1395   1.400       .  A
C1394      H1399   1.085       .  S
C1395      C1396   1.412   1_554  A
C1395      C1402   1.444       .  S
C1396      C1687   1.479       .  S
C1396      C1901   1.406       .  A
C1397      C1900   1.403       .  A
C1397      C1398   1.401       .  A
C1397      H1400   1.085       .  S
C1398      C1897   1.411       .  A
C1398      C1401   1.444       .  S
C1401      N1403   1.157       .  T
C1402      N1404   1.157       .  T
C1405      C1686   1.483       .  S
C1405      C1406   1.405       .  A
C1405      C1914   1.415   1_554  A
C1406      C1407   1.399       .  A
C1406      H1411   1.085       .  S
C1407      C1408   1.415       .  A
C1407      C1414   1.445       .  S
C1408      C1913   1.404   1_554  A
C1409      C1912   1.401       .  A
C1409      C1410   1.397       .  A
C1409      H1412   1.084       .  S
C1410      C1909   1.416       .  A
C1410      C1413   1.444       .  S
C1413      N1415   1.157       .  T
C1414      N1416   1.157       .  T
C1417      C1418   1.407       .  A
C1418      C1419   1.405       .  A
C1418      H1423   1.085       .  S
C1419      C1420   1.416       .  A
C1419      C1426   1.445       .  S
C1421      C1422   1.404       .  A
C1421      H1424   1.085       .  S
C1422      C1425   1.444       .  S
C1425      N1427   1.157       .  T
C1426      N1428   1.157       .  T
C1429      C1434   1.417       .  A
C1430      C1431   1.400       .  A
C1430      H1435   1.085       .  S
C1431      C1438   1.445       .  S
C1432      C1433   1.406       .  A
C1433      C1434   1.399       .  A
C1433      H1436   1.085       .  S
C1434      C1437   1.446       .  S
C1437      N1439   1.158       .  T
C1438      N1440   1.157       .  T
C1441      C1446   1.414       .  A
C1442      C1443   1.399       .  A
C1442      H1447   1.085       .  S
C1443      C1450   1.445       .  S
C1444      C1445   1.404       .  A
C1445      C1446   1.400       .  A
C1445      H1448   1.085       .  S
C1446      C1449   1.444       .  S
C1449      N1451   1.157       .  T
C1450      N1452   1.157       .  T
C1453      C1454   1.406       .  A
C1454      C1455   1.403       .  A
C1454      H1459   1.085       .  S
C1455      C1456   1.414       .  A
C1455      C1462   1.445       .  S
C1457      C1458   1.400       .  A
C1457      H1460   1.085       .  S
C1458      C1461   1.444       .  S
C1461      N1463   1.157       .  T
C1462      N1464   1.157       .  T
C1465      C1466   1.407   1_655  A
C1465      C3486   1.418       .  A
C1466      C1467   1.398       .  A
C1466      H1471   1.085       .  S
C1467      C1468   1.416   1_455  A
C1467      C1474   1.444       .  S
C1468      C3485   1.407       .  A
C1469      C3484   1.407       .  A
C1469      C1470   1.398       .  A
C1469      H1472   1.085       .  S
C1470      C3481   1.417       .  A
C1470      C1473   1.444       .  S
C1473      N1475   1.157       .  T
C1474      N1476   1.157       .  T
C1477      C3494   1.405   1_655  A
C1477      C1482   1.418       .  A
C1478      C3493   1.404       .  A
C1478      C1479   1.400       .  A
C1478      H1483   1.085       .  S
C1479      C3496   1.418       .  A
C1479      C1486   1.445       .  S
C1480      C3495   1.418       .  A
C1480      C1481   1.404   1_455  A
C1481      C1482   1.401       .  A
C1481      H1484   1.085       .  S
C1482      C1485   1.445       .  S
C1485      N1487   1.157       .  T
C1486      N1488   1.157       .  T
C1489      C3506   1.404   1_655  A
C1489      C1494   1.415       .  A
C1490      C3505   1.403       .  A
C1490      C1491   1.399       .  A
C1490      H1495   1.085       .  S
C1491      C3508   1.415       .  A
C1491      C1498   1.444       .  S
C1492      C3507   1.414   1_655  A
C1492      C1493   1.403       .  A
C1493      C1494   1.399       .  A
C1493      H1496   1.085       .  S
C1494      C1497   1.445       .  S
C1497      N1499   1.157       .  T
C1498      N1500   1.157       .  T
C1501      C3518   1.402   1_455  A
C1501      C1506   1.413       .  A
C1502      C3517   1.402       .  A
C1502      C1503   1.395       .  A
C1502      H1507   1.085       .  S
C1503      C3520   1.413       .  A
C1503      C1510   1.444       .  S
C1504      C3519   1.413       .  A
C1504      C1505   1.402   1_655  A
C1505      C1506   1.397       .  A
C1505      H1508   1.085       .  S
C1506      C1509   1.444       .  S
C1509      N1511   1.157       .  T
C1510      N1512   1.157       .  T
O1513      C1524   1.290       .  A
O1513     Eu1549   2.447   1_455  S
O1514      C1525   1.292       .  A
O1514     Eu1548   2.460       .  S
O1515      C1526   1.293       .  A
O1515     Eu1521   2.466   1_455  S
O1516      C1527   1.291       .  A
O1516     Eu3537   2.458       .  S
O1517      C1527   1.291       .  A
O1517     Eu1551   2.454       .  S
O1518      C1526   1.288       .  A
O1518     Eu1550   2.445       .  S
O1519      C1525   1.288       .  A
O1520      C1524   1.290       .  A
O1520     Eu1521   2.452   1_455  S
Eu1521     O3532   2.461       .  S
Eu1521     O3547   2.354       .  S
Eu1521     O1523   2.344   1_655  S
Eu1521     O3034   2.352       .  S
O1522     Eu3033   2.348       .  S
O1522     Eu3564   2.344       .  S
O1523     Eu1549   2.346   1_455  S
O1523     Eu1550   2.344       .  S
C1524      C2005   1.478       .  S
C1525      C1972   1.492       .  S
C1526      C1912   1.481       .  S
C1527      C1888   1.481       .  S
H1528      O1529   0.966       .  S
O1529     Eu1548   2.355   1_455  S
H1530      O1531   0.966       .  S
O1531     Eu3537   2.351       .  S
O1531     Eu3565   2.348       .  S
O1531     Eu1551   2.355       .  S
O1532      C1555   1.293       .  A
O1533      C1556   1.287       .  A
O1534      C1557   1.293       .  A
O1535      C1558   1.293       .  A
O1536      C1559   1.289       .  A
O1536     Eu1551   2.444       .  S
O1537      C1560   1.293       .  A
O1537     Eu1550   2.468       .  S
O1538      C1561   1.292       .  A
O1538     Eu1552   2.466       .  S
O1539      C1562   1.291       .  A
O1539     Eu3568   2.454       .  S
O1540      C1561   1.290       .  A
O1541      C1562   1.290       .  A
O1542      C1557   1.289       .  A
O1542     Eu1548   2.443   1_455  S
O1543      C1560   1.289       .  A
O1543     Eu1549   2.451   1_455  S
O1544      C1559   1.293       .  A
O1544     Eu3565   2.467       .  S
O1545      C1558   1.290       .  A
O1545     Eu3564   2.454       .  S
O1546      C1555   1.288       .  A
O1547      C1556   1.293       .  A
O1547     Eu1552   2.466       .  S
Eu1548     O3561   2.454       .  S
Eu1548     O3538   2.346       .  S
Eu1548     O2574   2.349       .  S
Eu1549     O3560   2.458       .  S
Eu1549     O3547   2.350       .  S
Eu1549     O2561   2.352       .  S
Eu1552     O3555   2.458   1_455  S
Eu1552     O3569   2.351   1_455  S
Eu1552     O1564   2.348       .  S
Eu1552     O3078   2.360   1_455  S
O1553     Eu2557   2.354   1_565  S
O1553     Eu3568   2.349       .  S
C1555      C1981   1.482       .  S
C1556      C1996   1.481       .  S
C1557      C1936   1.484       .  S
C1558      C1921   1.488       .  S
C1559      C1960   1.486       .  S
C1560      C1945   1.488       .  S
C1561      C1897   1.479       .  S
C1562      C1873   1.485       .  S
H1563      O1564   0.966       .  S
H1565      O1566   0.966       .  S
O1566     Eu2556   2.347   1_565  S
O1566     Eu3064   2.358   1_556  S
O1567      C1578   1.293       .  A
O1567     Eu1603   2.466       .  S
O1568      C1579   1.294       .  A
O1568     Eu1602   2.466       .  S
O1569      C1580   1.291       .  A
O1569     Eu1575   2.461   1_455  S
O1570      C1581   1.294       .  A
O1570     Eu3591   2.470       .  S
O1571      C1581   1.290       .  A
O1571     Eu1605   2.454       .  S
O1572      C1580   1.290       .  A
O1572     Eu1604   2.447       .  S
O1573      C1579   1.287       .  A
O1573     Eu1575   2.440       .  S
O1574      C1578   1.287       .  A
O1574     Eu1575   2.438       .  S
Eu1575     O3586   2.456       .  S
Eu1575     O3601   2.351       .  S
Eu1575     O1577   2.343   1_655  S
Eu1575     O3592   2.348       .  S
Eu1575     O1583   2.351   1_655  S
O1576     Eu3591   2.348       .  S
O1576     Eu1605   2.353       .  S
O1576     Eu3618   2.351       .  S
O1577     Eu1603   2.350   1_455  S
O1577     Eu1604   2.349       .  S
C1578      C2008   1.480       .  S
C1579      C1969   1.492       .  S
C1580      C1801   1.483       .  S
C1581      C1777   1.482       .  S
H1582      O1583   0.966       .  S
O1583     Eu1604   2.351       .  S
O1583     Eu1602   2.351   1_455  S
H1584      O1585   0.966       .  S
O1585     Eu3591   2.351       .  S
O1585     Eu3619   2.344       .  S
O1585     Eu1605   2.353       .  S
O1586      C1609   1.292       .  A
O1586     Eu1602   2.458       .  S
O1587      C1610   1.290       .  A
O1587     Eu1603   2.453       .  S
O1588      C1611   1.292       .  A
O1588     Eu1604   2.463       .  S
O1589      C1612   1.291       .  A
O1589     Eu1605   2.457       .  S
O1590      C1613   1.292       .  A
O1590     Eu1605   2.462       .  S
O1591      C1614   1.293       .  A
O1591     Eu1604   2.464       .  S
O1592      C1615   1.292       .  A
O1592     Eu1606   2.460       .  S
O1593      C1616   1.290       .  A
O1593     Eu3622   2.453       .  S
O1594      C1615   1.288       .  A
O1594     Eu1604   2.444       .  S
O1595      C1616   1.292       .  A
O1595     Eu1605   2.461       .  S
O1596      C1611   1.293       .  A
O1596     Eu1602   2.469   1_455  S
O1597      C1614   1.287       .  A
O1597     Eu1603   2.435   1_455  S
O1598      C1613   1.289       .  A
O1598     Eu3619   2.448       .  S
O1599      C1612   1.292       .  A
O1599     Eu3618   2.459       .  S
O1600      C1609   1.291   1_455  A
O1600     Eu1606   2.458       .  S
O1601      C1610   1.292   1_455  A
O1601     Eu1606   2.462       .  S
Eu1602     O3615   2.459       .  S
Eu1602     O3592   2.350       .  S
Eu1602     O3636   2.356       .  S
Eu1602     O1608   2.350   1_655  S
Eu1603     O3614   2.450       .  S
Eu1603     O3601   2.343       .  S
Eu1603     O3623   2.345       .  S
Eu1603     O1618   2.359   1_655  S
Eu1604     O1618   2.356       .  S
Eu1604     O1608   2.347       .  S
Eu1605     O1607   2.346       .  S
Eu1605     O1620   2.356       .  S
Eu1606     O3609   2.448   1_455  S
Eu1606     O3623   2.348   1_455  S
Eu1606     O1618   2.350       .  S
Eu1606     O3636   2.356   1_455  S
Eu1606     O1608   2.345       .  S
O1607     Eu3619   2.345       .  S
O1607     Eu3622   2.347       .  S
C1609      C1984   1.486       .  S
C1610      C1993   1.484       .  S
C1611      C1849   1.486       .  S
C1612      C1861   1.481       .  S
C1613      C1825   1.485       .  S
C1614      C1837   1.490       .  S
C1615      C1813   1.481       .  S
C1616      C1789   1.485       .  S
H1617      O1618   0.966       .  S
H1619      O1620   0.966       .  S
O1620     Eu3618   2.360       .  S
O1620     Eu3622   2.361       .  S
O1621      C1632   1.290       .  A
O1621     Eu1657   2.452   1_565  S
O1622      C1633   1.295       .  A
O1622     Eu1656   2.476       .  S
O1623      C1634   1.290       .  A
O1623     Eu1629   2.453       .  S
O1624      C1635   1.292       .  A
O1625      C1635   1.291       .  A
O1625     Eu1659   2.452       .  S
O1626      C1634   1.290       .  A
O1626     Eu1658   2.453       .  S
O1627      C1633   1.288       .  A
O1627     Eu1629   2.442       .  S
O1628      C1632   1.291       .  A
O1628     Eu1629   2.457       .  S
Eu1629     O1631   2.344       .  S
Eu1629     O1637   2.352       .  S
O1630     Eu1659   2.355       .  S
O1631     Eu1657   2.346   1_565  S
O1631     Eu1658   2.349       .  S
C1634      C1744   1.479       .  S
C1635      C1732   1.487       .  S
H1636      O1637   0.966       .  S
O1637     Eu1658   2.352       .  S
O1637     Eu1656   2.351       .  S
H1638      O1639   0.966       .  S
O1639     Eu1659   2.353       .  S
O1640      C1663   1.294       .  A
O1640     Eu1656   2.471       .  S
O1641      C1664   1.292       .  A
O1641     Eu1657   2.462       .  S
O1642      C1665   1.292       .  A
O1642     Eu1658   2.458       .  S
O1643      C1666   1.291       .  A
O1643     Eu1659   2.456       .  S
O1644      C1667   1.292       .  A
O1644     Eu1659   2.461       .  S
O1645      C1668   1.292       .  A
O1645     Eu1658   2.463       .  S
O1646      C1669   1.290       .  A
O1646     Eu1660   2.454       .  S
O1647      C1670   1.287       .  A
O1648      C1669   1.290       .  A
O1648     Eu1658   2.452       .  S
O1649      C1670   1.293       .  A
O1649     Eu1659   2.466       .  S
O1650      C1665   1.288       .  A
O1650     Eu1656   2.435       .  S
O1651      C1668   1.291       .  A
O1651     Eu1657   2.454   1_565  S
O1652      C1667   1.291       .  A
O1653      C1666   1.292       .  A
O1654      C1663   1.289       .  A
O1654     Eu1660   2.450       .  S
O1655      C1664   1.290       .  A
O1655     Eu1660   2.456   1_545  S
Eu1656     O1662   2.353       .  S
Eu1657     O1672   2.350   1_545  S
Eu1658     O1672   2.357       .  S
Eu1658     O1662   2.350       .  S
Eu1659     O1661   2.351       .  S
Eu1659     O1674   2.349       .  S
Eu1660     O1672   2.352       .  S
Eu1660     O1662   2.348       .  S
C1665      C1816   1.478       .  S
C1666      C1804   1.484       .  S
C1667      C1780   1.482       .  S
C1668      C1792   1.485       .  S
C1669      C1753   1.478       .  S
C1670      C1765   1.482       .  S
H1671      O1672   0.966       .  S
H1673      O1674   0.966       .  S
O1675      C1686   1.292       .  A
O1675     Eu1711   2.456       .  S
O1676      C1687   1.293       .  A
O1676     Eu1710   2.474       .  S
O1677      C1688   1.292       .  A
O1678      C1689   1.294       .  A
O1678     Eu1683   2.479       .  S
O1679      C1689   1.290       .  A
O1679     Eu1713   2.449       .  S
O1680      C1688   1.288       .  A
O1680     Eu1712   2.445       .  S
O1681      C1687   1.290       .  A
O1681     Eu1683   2.454       .  S
O1682      C1686   1.289       .  A
O1682     Eu1683   2.448   1_554  S
Eu1683     O1693   2.348       .  S
Eu1683     O1684   2.350       .  S
O1684     Eu1713   2.349       .  S
O1684     Eu1710   2.350       .  S
O1685     Eu1712   2.352       .  S
C1688      C1840   1.490       .  S
C1689      C1852   1.486       .  S
H1690      O1691   0.966       .  S
O1691     Eu1712   2.360       .  S
H1692      O1693   0.966       .  S
O1693     Eu1711   2.358   1_556  S
O1693     Eu1713   2.350       .  S
O1694      C1717   1.292       .  A
O1694     Eu1710   2.459       .  S
O1695      C1718   1.292       .  A
O1695     Eu1711   2.461       .  S
O1696      C1719   1.291       .  A
O1696     Eu1712   2.453       .  S
O1697      C1720   1.291       .  A
O1697     Eu1713   2.456       .  S
O1698      C1721   1.289       .  A
O1698     Eu1713   2.445       .  S
O1699      C1722   1.291       .  A
O1699     Eu1712   2.462       .  S
O1700      C1723   1.294       .  A
O1701      C1724   1.292       .  A
O1701     Eu1714   2.464       .  S
O1702      C1723   1.290       .  A
O1702     Eu1712   2.454       .  S
O1703      C1724   1.290       .  A
O1703     Eu1713   2.453       .  S
O1704      C1719   1.292       .  A
O1705      C1722   1.294       .  A
O1706      C1721   1.292       .  A
O1706     Eu1711   2.458   1_556  S
O1707      C1720   1.290       .  A
O1707     Eu1710   2.450       .  S
O1708      C1717   1.289       .  A
O1708     Eu1714   2.446       .  S
O1709      C1718   1.290       .  A
O1709     Eu1714   2.451   1_554  S
Eu1710     O1728   2.357       .  S
Eu1711     O1715   2.355   1_554  S
Eu1712     O1726   2.349       .  S
Eu1712     O1716   2.346       .  S
Eu1713     O1715   2.351       .  S
Eu1713     O1728   2.347       .  S
Eu1714     O1715   2.348       .  S
Eu1714     O1728   2.353       .  S
C1719      C1741   1.479       .  S
C1720      C1756   1.480       .  S
C1721      C1768   1.483       .  S
C1722      C1729   1.492       .  S
C1723      C1828   1.489       .  S
C1724      C1864   1.484       .  S
H1725      O1726   0.966       .  S
H1727      O1728   0.966       .  S
C1729      C1730   1.406       .  A
C1729      C1734   1.418       .  A
C1730      C1731   1.399       .  A
C1730      H1735   1.085       .  S
C1731      C1732   1.414       .  A
C1731      C1738   1.445       .  S
C1732      C1733   1.406       .  A
C1733      C1734   1.403       .  A
C1733      H1736   1.085       .  S
C1734      C1737   1.445       .  S
C1737      N1739   1.158       .  T
C1738      N1740   1.157       .  T
C1741      C1742   1.405       .  A
C1741      C1746   1.412       .  A
C1742      C1743   1.400       .  A
C1742      H1747   1.084       .  S
C1743      C1744   1.413       .  A
C1743      C1750   1.445       .  S
C1744      C1745   1.404       .  A
C1745      C1746   1.399       .  A
C1745      H1748   1.085       .  S
C1746      C1749   1.444       .  S
C1749      N1751   1.157       .  T
C1750      N1752   1.157       .  T
C1753      C1754   1.404       .  A
C1753      C1758   1.413       .  A
C1754      C1755   1.398       .  A
C1754      H1759   1.085       .  S
C1755      C1756   1.414       .  A
C1755      C1762   1.445       .  S
C1756      C1757   1.405       .  A
C1757      C1758   1.400       .  A
C1757      H1760   1.085       .  S
C1758      C1761   1.445       .  S
C1761      N1763   1.157       .  T
C1762      N1764   1.157       .  T
C1765      C1766   1.402       .  A
C1765      C1770   1.417       .  A
C1766      C1767   1.396       .  A
C1766      H1771   1.085       .  S
C1767      C1768   1.416       .  A
C1767      C1774   1.445       .  S
C1768      C1769   1.405       .  A
C1769      C1770   1.401       .  A
C1769      H1772   1.085       .  S
C1770      C1773   1.445       .  S
C1773      N1775   1.157       .  T
C1774      N1776   1.157       .  T
C1777      C1778   1.401       .  A
C1777      C1782   1.415       .  A
C1778      C1779   1.398       .  A
C1778      H1783   1.083       .  S
C1779      C1780   1.413       .  A
C1779      C1786   1.444       .  S
C1780      C1781   1.406       .  A
C1781      C1782   1.404       .  A
C1781      H1784   1.085       .  S
C1782      C1785   1.445       .  S
C1785      N1787   1.157       .  T
C1786      N1788   1.157       .  T
C1789      C1790   1.406       .  A
C1789      C1794   1.415       .  A
C1790      C1791   1.402       .  A
C1790      H1795   1.085       .  S
C1791      C1792   1.414       .  A
C1791      C1798   1.445       .  S
C1792      C1793   1.405       .  A
C1793      C1794   1.400       .  A
C1793      H1796   1.085       .  S
C1794      C1797   1.445       .  S
C1797      N1799   1.157       .  T
C1798      N1800   1.157       .  T
C1801      C1802   1.405       .  A
C1801      C1806   1.414       .  A
C1802      C1803   1.400       .  A
C1802      H1807   1.085       .  S
C1803      C1804   1.415       .  A
C1803      C1810   1.445       .  S
C1804      C1805   1.405       .  A
C1805      C1806   1.401       .  A
C1805      H1808   1.085       .  S
C1806      C1809   1.445       .  S
C1809      N1811   1.157       .  T
C1810      N1812   1.157       .  T
C1813      C1814   1.404       .  A
C1813      C1818   1.416       .  A
C1814      C1815   1.396       .  A
C1814      H1819   1.085       .  S
C1815      C1816   1.414       .  A
C1815      C1822   1.445       .  S
C1816      C1817   1.403       .  A
C1817      C1818   1.399       .  A
C1817      H1820   1.085       .  S
C1818      C1821   1.445       .  S
C1821      N1823   1.157       .  T
C1822      N1824   1.157       .  T
C1825      C1826   1.404       .  A
C1825      C1830   1.415       .  A
C1826      C1827   1.402       .  A
C1826      H1831   1.085       .  S
C1827      C1828   1.418       .  A
C1827      C1834   1.445       .  S
C1828      C1829   1.405       .  A
C1829      C1830   1.401       .  A
C1829      H1832   1.085       .  S
C1830      C1833   1.445       .  S
C1833      N1835   1.157       .  T
C1834      N1836   1.157       .  T
C1837      C1838   1.406       .  A
C1837      C1842   1.419       .  A
C1838      C1839   1.397       .  A
C1838      H1843   1.085       .  S
C1839      C1840   1.417       .  A
C1839      C1846   1.445       .  S
C1840      C1841   1.407       .  A
C1841      C1842   1.398       .  A
C1841      H1844   1.085       .  S
C1842      C1845   1.446       .  S
C1845      N1847   1.158       .  T
C1846      N1848   1.157       .  T
C1849      C1850   1.405       .  A
C1849      C1854   1.414       .  A
C1850      C1851   1.403       .  A
C1850      H1855   1.085       .  S
C1851      C1852   1.415       .  A
C1851      C1858   1.444       .  S
C1852      C1853   1.404       .  A
C1853      C1854   1.403       .  A
C1853      H1856   1.085       .  S
C1854      C1857   1.444       .  S
C1857      N1859   1.157       .  T
C1858      N1860   1.157       .  T
C1861      C1862   1.403       .  A
C1861      C1866   1.413       .  A
C1862      C1863   1.399       .  A
C1862      H1867   1.085       .  S
C1863      C1864   1.415       .  A
C1863      C1870   1.444       .  S
C1864      C1865   1.406       .  A
C1865      C1866   1.403       .  A
C1865      H1868   1.085       .  S
C1866      C1869   1.443       .  S
C1869      N1871   1.157       .  T
C1870      N1872   1.157       .  T
C1873      C1878   1.416       .  A
C1874      C1875   1.397       .  A
C1874      H1879   1.085       .  S
C1875      C1882   1.445       .  S
C1876      C1877   1.403       .  A
C1877      C1878   1.399       .  A
C1877      H1880   1.085       .  S
C1878      C1881   1.444       .  S
C1881      N1883   1.157       .  T
C1882      N1884   1.157       .  T
C1885      C1886   1.405       .  A
C1886      C1887   1.400       .  A
C1886      H1891   1.085       .  S
C1887      C1888   1.414       .  A
C1887      C1894   1.445       .  S
C1889      C1890   1.398       .  A
C1889      H1892   1.085       .  S
C1890      C1893   1.445       .  S
C1893      N1895   1.157       .  T
C1894      N1896   1.158       .  T
C1897      C1898   1.404       .  A
C1898      C1899   1.404       .  A
C1898      H1903   1.085       .  S
C1899      C1900   1.414       .  A
C1899      C1906   1.444       .  S
C1901      C1902   1.402       .  A
C1901      H1904   1.085       .  S
C1902      C1905   1.444       .  S
C1905      N1907   1.157       .  T
C1906      N1908   1.157       .  T
C1909      C1910   1.404       .  A
C1910      C1911   1.400       .  A
C1910      H1915   1.085       .  S
C1911      C1912   1.415       .  A
C1911      C1918   1.444       .  S
C1913      C1914   1.398       .  A
C1913      H1916   1.083       .  S
C1914      C1917   1.445       .  S
C1917      N1919   1.158       .  T
C1918      N1920   1.157       .  T
C1921      C1922   1.406       .  A
C1922      C1923   1.402       .  A
C1922      H1927   1.085       .  S
C1923      C1924   1.414       .  A
C1923      C1930   1.445       .  S
C1925      C1926   1.400       .  A
C1925      H1928   1.085       .  S
C1926      C1929   1.443       .  S
C1929      N1931   1.157       .  T
C1930      N1932   1.157       .  T
C1933      C1938   1.416       .  A
C1934      C1935   1.401       .  A
C1934      H1939   1.085       .  S
C1935      C1942   1.443       .  S
C1936      C1937   1.404       .  A
C1937      C1938   1.399       .  A
C1937      H1940   1.085       .  S
C1938      C1941   1.445       .  S
C1941      N1943   1.157       .  T
C1942      N1944   1.157       .  T
C1945      C1950   1.416       .  A
C1946      C1947   1.401       .  A
C1946      H1951   1.085       .  S
C1947      C1954   1.446       .  S
C1948      C1949   1.406       .  A
C1949      C1950   1.403       .  A
C1949      H1952   1.085       .  S
C1950      C1953   1.445       .  S
C1953      N1955   1.157       .  T
C1954      N1956   1.158       .  T
C1957      C1958   1.407       .  A
C1958      C1959   1.402       .  A
C1958      H1963   1.085       .  S
C1959      C1960   1.417       .  A
C1959      C1966   1.446       .  S
C1961      C1962   1.399       .  A
C1961      H1964   1.085       .  S
C1962      C1965   1.445       .  S
C1965      N1967   1.157       .  T
C1966      N1968   1.158       .  T
C1969      C1970   1.405   1_655  A
C1969      C3990   1.419       .  A
C1970      C1971   1.397       .  A
C1970      H1975   1.085       .  S
C1971      C1972   1.418   1_455  A
C1971      C1978   1.444       .  S
C1972      C3989   1.406       .  A
C1973      C3988   1.405       .  A
C1973      C1974   1.397       .  A
C1973      H1976   1.085       .  S
C1974      C3985   1.419       .  A
C1974      C1977   1.445       .  S
C1977      N1979   1.157       .  T
C1978      N1980   1.157       .  T
C1981      C3998   1.402   1_655  A
C1981      C1986   1.416       .  A
C1982      C3997   1.403       .  A
C1982      C1983   1.401       .  A
C1982      H1987   1.085       .  S
C1983      C4000   1.416       .  A
C1983      C1990   1.444       .  S
C1984      C3999   1.415   1_655  A
C1984      C1985   1.407       .  A
C1985      C1986   1.401       .  A
C1985      H1988   1.085       .  S
C1986      C1989   1.446       .  S
C1989      N1991   1.158       .  T
C1990      N1992   1.157       .  T
C1993      C4010   1.405   1_655  A
C1993      C1998   1.415       .  A
C1994      C4009   1.405       .  A
C1994      C1995   1.401       .  A
C1994      H1999   1.085       .  S
C1995      C4012   1.417       .  A
C1995      C2002   1.445       .  S
C1996      C4011   1.417       .  A
C1996      C1997   1.403   1_455  A
C1997      C1998   1.398       .  A
C1997      H2000   1.085       .  S
C1998      C2001   1.444       .  S
C2001      N2003   1.157       .  T
C2002      N2004   1.158       .  T
C2005      C4022   1.403   1_455  A
C2005      C2010   1.413       .  A
C2006      C4021   1.402       .  A
C2006      C2007   1.397       .  A
C2006      H2011   1.085       .  S
C2007      C4024   1.414       .  A
C2007      C2014   1.445       .  S
C2008      C4023   1.416       .  A
C2008      C2009   1.404   1_655  A
C2009      C2010   1.399       .  A
C2009      H2012   1.085       .  S
C2010      C2013   1.444       .  S
C2013      N2015   1.157       .  T
C2014      N2016   1.157       .  T
O2017      C2028   1.289       .  A
O2017     Eu2053   2.441   1_545  S
O2018      C2029   1.293       .  A
O2018     Eu2052   2.462       .  S
O2019      C2030   1.292       .  A
O2019     Eu2025   2.461       .  S
O2020      C2031   1.291       .  A
O2021      C2031   1.292       .  A
O2021     Eu2055   2.458   1_554  S
O2022      C2030   1.288       .  A
O2022     Eu2054   2.444   1_545  S
O2023      C2029   1.288       .  A
O2023     Eu2529   2.439       .  S
O2024      C2028   1.289       .  A
O2024     Eu2025   2.444       .  S
Eu2025     O2527   2.441   1_554  S
Eu2025     O2027   2.340       .  S
Eu2025     O2537   2.347   1_554  S
O2026     Eu2559   2.341       .  S
O2027     Eu2053   2.350   1_545  S
O2027     Eu2054   2.346   1_545  S
C2028      C2509   1.470       .  S
C2029      C2476   1.488       .  S
C2030      C2416   1.480       .  S
C2031      C2392   1.488       .  S
H2032      O2033   0.966       .  S
O2033     Eu2529   2.355       .  S
O2033     Eu2558   2.355   1_545  S
O2033     Eu2052   2.354       .  S
H2034      O2035   0.966       .  S
O2035     Eu2055   2.352   1_554  S
O2036      C2059   1.293       .  A
O2036     Eu3060   2.467       .  S
O2037      C2060   1.291       .  A
O2037     Eu3061   2.456       .  S
O2038      C2061   1.293       .  A
O2038     Eu2558   2.464   1_545  S
O2039      C2062   1.293       .  A
O2039     Eu2559   2.471       .  S
O2040      C2063   1.291       .  A
O2040     Eu2055   2.456   1_564  S
O2041      C2064   1.293       .  A
O2041     Eu2054   2.466   1_545  S
O2042      C2065   1.291       .  A
O2042     Eu2056   2.459       .  S
O2043      C2066   1.290       .  A
O2044      C2065   1.290       .  A
O2044     Eu3062   2.452   1_554  S
O2045      C2066   1.291       .  A
O2045     Eu3063   2.454       .  S
O2046      C2061   1.289       .  A
O2046     Eu2052   2.448       .  S
O2047      C2064   1.289       .  A
O2047     Eu2053   2.448   1_545  S
O2048      C2063   1.291   1_545  A
O2049      C2062   1.291       .  A
O2050      C2059   1.290       .  A
O2050     Eu2560   2.451       .  S
O2051      C2060   1.293       .  A
O2051     Eu2056   2.467       .  S
Eu2052     O3044   2.470   1_545  S
Eu2052     O3066   2.357   1_545  S
Eu2053     O3045   2.454       .  S
Eu2053     O3076   2.349       .  S
Eu2054     O2542   2.470   1_564  S
Eu2054     O3052   2.441       .  S
Eu2054     O2537   2.353   1_564  S
Eu2054     O3076   2.353       .  S
Eu2054     O3570   2.347   1_554  S
Eu2055     O2543   2.460       .  S
Eu2055     O3053   2.456   1_545  S
Eu2055     O2530   2.344       .  S
Eu2055     O3065   2.357   1_546  S
Eu2055     O3582   2.352   1_545  S
Eu2056     O2554   2.452   1_554  S
Eu2056     O2068   2.346       .  S
Eu2056     O2562   2.353   1_554  S
O2057     Eu3063   2.352       .  S
O2058     Eu3060   2.358       .  S
O2058     Eu3566   2.353       .  S
O2058     Eu2560   2.352       .  S
C2059      C2485   1.490       .  S
C2060      C2500   1.486       .  S
C2061      C2440   1.483       .  S
C2062      C2425   1.491       .  S
C2063      C2464   1.479       .  S
C2064      C2449   1.487   1_545  S
C2065      C2401   1.478       .  S
C2066      C2377   1.480       .  S
H2067      O2068   0.965       .  S
O2068     Eu3061   2.356       .  S
O2068     Eu3062   2.355   1_554  S
H2069      O2070   0.966       .  S
O2070     Eu3567   2.351       .  S
O2071      C2082   1.291       .  A
O2071     Eu2107   2.457       .  S
O2072      C2083   1.293       .  A
O2072     Eu2106   2.465       .  S
O2073      C2084   1.290       .  A
O2073     Eu2079   2.456       .  S
O2074      C2085   1.291       .  A
O2075      C2085   1.288       .  A
O2075     Eu2109   2.440       .  S
O2076      C2084   1.291       .  A
O2076     Eu2108   2.451       .  S
O2077      C2083   1.288       .  A
O2077     Eu2079   2.444       .  S
O2078      C2082   1.288       .  A
O2078     Eu2079   2.442       .  S
Eu2079     O2081   2.346       .  S
Eu2079     O2087   2.357       .  S
O2080     Eu2109   2.351       .  S
O2081     Eu2107   2.350       .  S
O2081     Eu2108   2.349       .  S
C2082      C2512   1.474       .  S
C2083      C2473   1.489       .  S
C2084      C2305   1.481       .  S
C2085      C2281   1.473       .  S
H2086      O2087   0.966       .  S
O2087     Eu2108   2.350       .  S
O2087     Eu2106   2.356       .  S
H2088      O2089   0.966       .  S
O2089     Eu2109   2.353       .  S
O2090      C2113   1.294       .  A
O2090     Eu2106   2.469       .  S
O2091      C2114   1.292       .  A
O2091     Eu2107   2.467       .  S
O2092      C2115   1.294       .  A
O2092     Eu2108   2.472       .  S
O2093      C2116   1.293       .  A
O2093     Eu2109   2.463       .  S
O2094      C2117   1.293       .  A
O2094     Eu2109   2.463       .  S
O2095      C2118   1.293       .  A
O2095     Eu2108   2.459       .  S
O2096      C2119   1.292       .  A
O2096     Eu2110   2.458       .  S
O2097      C2120   1.290       .  A
O2098      C2119   1.290       .  A
O2098     Eu2108   2.449       .  S
O2099      C2120   1.292       .  A
O2099     Eu2109   2.457       .  S
O2100      C2115   1.291       .  A
O2100     Eu2106   2.458       .  S
O2101      C2118   1.288       .  A
O2101     Eu2107   2.441       .  S
O2102      C2117   1.288       .  A
O2103      C2116   1.292       .  A
O2104      C2113   1.290       .  A
O2104     Eu2110   2.453       .  S
O2105      C2114   1.291       .  A
O2105     Eu2110   2.456       .  S
Eu2106     O2112   2.348       .  S
Eu2107     O2122   2.346       .  S
Eu2108     O2122   2.353       .  S
Eu2108     O2112   2.345       .  S
Eu2109     O2111   2.348       .  S
Eu2109     O2124   2.351       .  S
Eu2110     O2122   2.345       .  S
Eu2110     O2112   2.349       .  S
C2113      C2488   1.492       .  S
C2114      C2497   1.487       .  S
C2115      C2353   1.483       .  S
C2116      C2365   1.488       .  S
C2117      C2329   1.481       .  S
C2118      C2341   1.489       .  S
C2119      C2317   1.487       .  S
C2120      C2293   1.494       .  S
H2121      O2122   0.965       .  S
H2123      O2124   0.966       .  S
O2125      C2136   1.293       .  A
O2125     Eu2161   2.464       .  S
O2126      C2137   1.292       .  A
O2126     Eu2160   2.464       .  S
O2127      C2138   1.290       .  A
O2127     Eu2133   2.451       .  S
O2128      C2139   1.292       .  A
O2128     Eu3141   2.460   1_545  S
O2129      C2139   1.290       .  A
O2129     Eu2163   2.453       .  S
O2130      C2138   1.291       .  A
O2130     Eu2162   2.456       .  S
O2131      C2137   1.292       .  A
O2131     Eu2133   2.462       .  S
O2132      C2136   1.291       .  A
O2132     Eu2133   2.457       .  S
Eu2133     O3136   2.464       .  S
Eu2133     O3151   2.353       .  S
Eu2133     O2135   2.353       .  S
Eu2133     O3142   2.347       .  S
Eu2133     O2141   2.352       .  S
O2134     Eu3141   2.350   1_545  S
O2134     Eu2163   2.348       .  S
O2134     Eu3168   2.350       .  S
O2135     Eu2161   2.352       .  S
O2135     Eu2162   2.351       .  S
C2136      C3469   1.482       .  S
C2137      C3460   1.487       .  S
C2138      C2248   1.481       .  S
C2139      C2236   1.479       .  S
H2140      O2141   0.966       .  S
O2141     Eu2162   2.355       .  S
O2141     Eu2160   2.352       .  S
H2142      O2143   0.965       .  S
O2143     Eu3141   2.348   1_545  S
O2143     Eu3169   2.354   1_545  S
O2143     Eu2163   2.355       .  S
O2144      C2167   1.293       .  A
O2144     Eu2160   2.464       .  S
O2145      C2168   1.294       .  A
O2145     Eu2161   2.471       .  S
O2146      C2169   1.292       .  A
O2146     Eu2162   2.460       .  S
O2147      C2170   1.291       .  A
O2147     Eu2163   2.454       .  S
O2148      C2171   1.289       .  A
O2148     Eu2163   2.442       .  S
O2149      C2172   1.291       .  A
O2149     Eu2162   2.458       .  S
O2150      C2173   1.292       .  A
O2150     Eu2164   2.464       .  S
O2151      C2174   1.286       .  A
O2151     Eu3172   2.430       .  S
O2152      C2173   1.292       .  A
O2152     Eu2162   2.464       .  S
O2153      C2174   1.293       .  A
O2153     Eu2163   2.464       .  S
O2154      C2169   1.290       .  A
O2154     Eu2160   2.452       .  S
O2155      C2172   1.294       .  A
O2155     Eu2161   2.470       .  S
O2156      C2171   1.290       .  A
O2156     Eu3169   2.447   1_545  S
O2157      C2170   1.290       .  A
O2157     Eu3168   2.453       .  S
O2158      C2167   1.287       .  A
O2158     Eu2164   2.437       .  S
O2159      C2168   1.289       .  A
O2159     Eu2164   2.448       .  S
Eu2160     O3165   2.454       .  S
Eu2160     O3142   2.349       .  S
Eu2160     O3186   2.355       .  S
Eu2160     O2166   2.355       .  S
Eu2161     O3164   2.460       .  S
Eu2161     O3151   2.361       .  S
Eu2161     O3173   2.349       .  S
Eu2161     O2176   2.356       .  S
Eu2162     O2176   2.356       .  S
Eu2162     O2166   2.347       .  S
Eu2163     O2165   2.351       .  S
Eu2163     O2178   2.348       .  S
Eu2164     O3159   2.446       .  S
Eu2164     O3173   2.348       .  S
Eu2164     O2176   2.350       .  S
Eu2164     O3186   2.357       .  S
Eu2164     O2166   2.348       .  S
O2165     Eu3169   2.347   1_545  S
O2165     Eu3172   2.344       .  S
C2167      C3445   1.483       .  S
C2168      C3436   1.483       .  S
C2169      C2320   1.487       .  S
C2170      C2308   1.481       .  S
C2171      C2284   1.471       .  S
C2172      C2296   1.497       .  S
C2173      C2257   1.490       .  S
C2174      C2269   1.474       .  S
H2175      O2176   0.966       .  S
H2177      O2178   0.963       .  S
O2178     Eu3168   2.350       .  S
O2178     Eu3172   2.358       .  S
O2179      C2190   1.290       .  A
O2179     Eu2215   2.449       .  S
O2180      C2191   1.291       .  A
O2180     Eu2214   2.463       .  S
O2181      C2192   1.293       .  A
O2181     Eu2691   2.463       .  S
O2182      C2193   1.293       .  A
O2182     Eu2187   2.467       .  S
O2183      C2193   1.290       .  A
O2183     Eu2217   2.459       .  S
O2184      C2192   1.288       .  A
O2184     Eu2216   2.441       .  S
O2185      C2191   1.293       .  A
O2185     Eu2187   2.472       .  S
O2186      C2190   1.290       .  A
O2186     Eu2187   2.449       .  S
Eu2187     O2685   2.454       .  S
Eu2187     O2197   2.356       .  S
Eu2187     O2693   2.358       .  S
Eu2187     O2188   2.345       .  S
Eu2187     O2699   2.356       .  S
O2188     Eu2217   2.351       .  S
O2188     Eu2214   2.353       .  S
O2189     Eu2691   2.356       .  S
O2189     Eu2719   2.350       .  S
O2189     Eu2216   2.353       .  S
C2190      C2917   1.471       .  S
C2191      C2908   1.483       .  S
C2192      C2344   1.490       .  S
C2193      C2356   1.484       .  S
H2194      O2195   0.966       .  S
O2195     Eu2691   2.354       .  S
O2195     Eu2216   2.351       .  S
O2195     Eu2718   2.346       .  S
H2196      O2197   0.966       .  S
O2197     Eu2215   2.357       .  S
O2197     Eu2217   2.346       .  S
O2198      C2221   1.292       .  A
O2198     Eu2214   2.461       .  S
O2199      C2222   1.291       .  A
O2199     Eu2215   2.457       .  S
O2200      C2223   1.291       .  A
O2200     Eu2216   2.458       .  S
O2201      C2224   1.290       .  A
O2201     Eu2217   2.452       .  S
O2202      C2225   1.288       .  A
O2202     Eu2217   2.446       .  S
O2203      C2226   1.291       .  A
O2203     Eu2216   2.462       .  S
O2204      C2227   1.292       .  A
O2204     Eu2722   2.458   1_554  S
O2205      C2228   1.294       .  A
O2205     Eu2218   2.469       .  S
O2206      C2227   1.288       .  A
O2206     Eu2216   2.442       .  S
O2207      C2228   1.289       .  A
O2207     Eu2217   2.445       .  S
O2208      C2223   1.288       .  A
O2208     Eu2718   2.443       .  S
O2209      C2226   1.292       .  A
O2209     Eu2719   2.463       .  S
O2210      C2225   1.291       .  A
O2210     Eu2215   2.458       .  S
O2211      C2224   1.291       .  A
O2211     Eu2214   2.454       .  S
O2212      C2221   1.290       .  A
O2212     Eu2218   2.451       .  S
O2213      C2222   1.291       .  A
O2213     Eu2218   2.457       .  S
Eu2214     O2712   2.455       .  S
Eu2214     O2699   2.352       .  S
Eu2214     O2232   2.355       .  S
Eu2214     O2724   2.351       .  S
Eu2215     O2713   2.459       .  S
Eu2215     O2693   2.351       .  S
Eu2215     O2219   2.345       .  S
Eu2215     O2734   2.353       .  S
Eu2216     O2230   2.350       .  S
Eu2216     O2220   2.344       .  S
Eu2217     O2219   2.353       .  S
Eu2217     O2232   2.355       .  S
Eu2218     O2708   2.477       .  S
Eu2218     O2219   2.350       .  S
Eu2218     O2734   2.351       .  S
Eu2218     O2232   2.359       .  S
Eu2218     O2724   2.350       .  S
O2220     Eu2718   2.349       .  S
O2220     Eu2722   2.353   1_554  S
C2221      C2884   1.485       .  S
C2222      C2893   1.484       .  S
C2223      C2245   1.480       .  S
C2224      C2260   1.484       .  S
C2225      C2272   1.476       .  S
C2226      C2233   1.482       .  S
C2227      C2332   1.481       .  S
C2228      C2368   1.486       .  S
H2229      O2230   0.966       .  S
O2230     Eu2719   2.350       .  S
O2230     Eu2722   2.351   1_554  S
H2231      O2232   0.966       .  S
C2233      C2234   1.405       .  A
C2233      C2238   1.415       .  A
C2234      C2235   1.401       .  A
C2234      H2239   1.085       .  S
C2235      C2236   1.412       .  A
C2235      C2242   1.445       .  S
C2236      C2237   1.404       .  A
C2237      C2238   1.401       .  A
C2237      H2240   1.085       .  S
C2238      C2241   1.444       .  S
C2241      N2243   1.157       .  T
C2242      N2244   1.157       .  T
C2245      C2246   1.404       .  A
C2245      C2250   1.415       .  A
C2246      C2247   1.398       .  A
C2246      H2251   1.085       .  S
C2247      C2248   1.414       .  A
C2247      C2254   1.444       .  S
C2248      C2249   1.405       .  A
C2249      C2250   1.399       .  A
C2249      H2252   1.085       .  S
C2250      C2253   1.445       .  S
C2253      N2255   1.157       .  T
C2254      N2256   1.157       .  T
C2257      C2258   1.408       .  A
C2257      C2262   1.416       .  A
C2258      C2259   1.404       .  A
C2258      H2263   1.085       .  S
C2259      C2260   1.414       .  A
C2259      C2266   1.446       .  S
C2260      C2261   1.404       .  A
C2261      C2262   1.399       .  A
C2261      H2264   1.085       .  S
C2262      C2265   1.444       .  S
C2265      N2267   1.157       .  T
C2266      N2268   1.158       .  T
C2269      C2270   1.401       .  A
C2269      C2274   1.415       .  A
C2270      C2271   1.397       .  A
C2270      H2275   1.085       .  S
C2271      C2272   1.413       .  A
C2271      C2278   1.443       .  S
C2272      C2273   1.401       .  A
C2273      C2274   1.397       .  A
C2273      H2276   1.085       .  S
C2274      C2277   1.444       .  S
C2277      N2279   1.157       .  T
C2278      N2280   1.157       .  T
C2281      C2282   1.401       .  A
C2281      C2286   1.413       .  A
C2282      C2283   1.395       .  A
C2282      H2287   1.083       .  S
C2283      C2284   1.411       .  A
C2283      C2290   1.444       .  S
C2284      C2285   1.403       .  A
C2285      C2286   1.397       .  A
C2285      H2288   1.085       .  S
C2286      C2289   1.445       .  S
C2289      N2291   1.157       .  T
C2290      N2292   1.157       .  T
C2293      C2294   1.406       .  A
C2293      C2298   1.418       .  A
C2294      C2295   1.402       .  A
C2294      H2299   1.085       .  S
C2295      C2296   1.420       .  A
C2295      C2302   1.445       .  S
C2296      C2297   1.407       .  A
C2297      C2298   1.401       .  A
C2297      H2300   1.085       .  S
C2298      C2301   1.445       .  S
C2301      N2303   1.158       .  T
C2302      N2304   1.158       .  T
C2305      C2306   1.404       .  A
C2305      C2310   1.414       .  A
C2306      C2307   1.397       .  A
C2306      H2311   1.085       .  S
C2307      C2308   1.413       .  A
C2307      C2314   1.445       .  S
C2308      C2309   1.406       .  A
C2309      C2310   1.401       .  A
C2309      H2312   1.085       .  S
C2310      C2313   1.445       .  S
C2313      N2315   1.157       .  T
C2314      N2316   1.157       .  T
C2317      C2318   1.407       .  A
C2317      C2322   1.416       .  A
C2318      C2319   1.401       .  A
C2318      H2323   1.085       .  S
C2319      C2320   1.416       .  A
C2319      C2326   1.445       .  S
C2320      C2321   1.404       .  A
C2321      C2322   1.398       .  A
C2321      H2324   1.085       .  S
C2322      C2325   1.445       .  S
C2325      N2327   1.157       .  T
C2326      N2328   1.158       .  T
C2329      C2330   1.404       .  A
C2329      C2334   1.416       .  A
C2330      C2331   1.398       .  A
C2330      H2335   1.085       .  S
C2331      C2332   1.415       .  A
C2331      C2338   1.445       .  S
C2332      C2333   1.404       .  A
C2333      C2334   1.398       .  A
C2333      H2336   1.085       .  S
C2334      C2337   1.445       .  S
C2337      N2339   1.157       .  T
C2338      N2340   1.157       .  T
C2341      C2342   1.406       .  A
C2341      C2346   1.419       .  A
C2342      C2343   1.398       .  A
C2342      H2347   1.085       .  S
C2343      C2344   1.418       .  A
C2343      C2350   1.445       .  S
C2344      C2345   1.405       .  A
C2345      C2346   1.398       .  A
C2345      H2348   1.085       .  S
C2346      C2349   1.446       .  S
C2349      N2351   1.158       .  T
C2350      N2352   1.158       .  T
C2353      C2354   1.403       .  A
C2353      C2358   1.414       .  A
C2354      C2355   1.401       .  A
C2354      H2359   1.085       .  S
C2355      C2356   1.414       .  A
C2355      C2362   1.444       .  S
C2356      C2357   1.404       .  A
C2357      C2358   1.403       .  A
C2357      H2360   1.085       .  S
C2358      C2361   1.444       .  S
C2361      N2363   1.157       .  T
C2362      N2364   1.157       .  T
C2365      C2366   1.406       .  A
C2365      C2370   1.415       .  A
C2366      C2367   1.401       .  A
C2366      H2371   1.085       .  S
C2367      C2368   1.417       .  A
C2367      C2374   1.445       .  S
C2368      C2369   1.404       .  A
C2369      C2370   1.400       .  A
C2369      H2372   1.085       .  S
C2370      C2373   1.443       .  S
C2373      N2375   1.157       .  T
C2374      N2376   1.158       .  T
C2377      C2882   1.404       .  A
C2377      C2382   1.413   1_554  A
C2378      C2881   1.404       .  A
C2378      C2379   1.400       .  A
C2378      H2383   1.085       .  S
C2379      C2884   1.415       .  A
C2379      C2386   1.445       .  S
C2380      C2725   1.481       .  S
C2380      C2883   1.415       .  A
C2380      C2381   1.404   1_554  A
C2381      C2382   1.398       .  A
C2381      H2384   1.085       .  S
C2382      C2385   1.445       .  S
C2385      N2387   1.157       .  T
C2386      N2388   1.157       .  T
C2389      C2726   1.487       .  S
C2389      C2390   1.406   1_556  A
C2389      C2898   1.416       .  A
C2390      C2391   1.400       .  A
C2390      H2395   1.085       .  S
C2391      C2392   1.416       .  A
C2391      C2398   1.445       .  S
C2392      C2897   1.407   1_554  A
C2393      C2896   1.406       .  A
C2393      C2394   1.401       .  A
C2393      H2396   1.085       .  S
C2394      C2893   1.415       .  A
C2394      C2397   1.445       .  S
C2397      N2399   1.157       .  T
C2398      N2400   1.158       .  T
C2401      C2402   1.403       .  A
C2401      C2910   1.411   1_554  A
C2402      C2403   1.401       .  A
C2402      H2407   1.085       .  S
C2403      C2404   1.413       .  A
C2403      C2410   1.444       .  S
C2404      C2695   1.482       .  S
C2404      C2909   1.406   1_554  A
C2405      C2908   1.404       .  A
C2405      C2406   1.402       .  A
C2405      H2408   1.085       .  S
C2406      C2905   1.411       .  A
C2406      C2409   1.444       .  S
C2409      N2411   1.157       .  T
C2410      N2412   1.157       .  T
C2413      C2694   1.478       .  S
C2413      C2414   1.404       .  A
C2413      C2922   1.413   1_554  A
C2414      C2415   1.400       .  A
C2414      H2419   1.085       .  S
C2415      C2416   1.415       .  A
C2415      C2422   1.445       .  S
C2416      C2921   1.403   1_554  A
C2417      C2920   1.402       .  A
C2417      C2418   1.395       .  A
C2417      H2420   1.085       .  S
C2418      C2917   1.412       .  A
C2418      C2421   1.444       .  S
C2421      N2423   1.157       .  T
C2422      N2424   1.157       .  T
C2425      C2426   1.406       .  A
C2425      C3438   1.415   1_545  A
C2426      C2427   1.405       .  A
C2426      H2431   1.085       .  S
C2427      C2428   1.418       .  A
C2427      C2434   1.445       .  S
C2428      C3176   1.491       .  S
C2428      C3437   1.404   1_545  A
C2429      C3436   1.402       .  A
C2429      C2430   1.398       .  A
C2429      H2432   1.085       .  S
C2430      C3433   1.412       .  A
C2430      C2433   1.443       .  S
C2433      N2435   1.157       .  T
C2434      N2436   1.158       .  T
C2437      C3175   1.482       .  S
C2437      C3446   1.403       .  A
C2437      C2442   1.416   1_545  A
C2438      C3445   1.403       .  A
C2438      C2439   1.399       .  A
C2438      H2443   1.085       .  S
C2439      C3448   1.419       .  A
C2439      C2446   1.444       .  S
C2440      C3447   1.416       .  A
C2440      C2441   1.404   1_545  A
C2441      C2442   1.399       .  A
C2441      H2444   1.085       .  S
C2442      C2445   1.445       .  S
C2445      N2447   1.157       .  T
C2446      N2448   1.157       .  T
C2449      C3458   1.405       .  A
C2449      C2454   1.417   1_565  A
C2450      C3457   1.406       .  A
C2450      C2451   1.402       .  A
C2450      H2455   1.085       .  S
C2451      C3460   1.415       .  A
C2451      C2458   1.444       .  S
C2452      C3145   1.486       .  S
C2452      C3459   1.415       .  A
C2452      C2453   1.405   1_565  A
C2453      C2454   1.400       .  A
C2453      H2456   1.085       .  S
C2454      C2457   1.445       .  S
C2457      N2459   1.157       .  T
C2458      N2460   1.157       .  T
C2461      C3144   1.483       .  S
C2461      C2462   1.406       .  A
C2461      C3474   1.414   1_565  A
C2462      C2463   1.404       .  A
C2462      H2467   1.085       .  S
C2463      C2464   1.412       .  A
C2463      C2470   1.445       .  S
C2464      C3473   1.402   1_565  A
C2465      C3472   1.405       .  A
C2465      C2466   1.402       .  A
C2465      H2468   1.085       .  S
C2466      C3469   1.413       .  A
C2466      C2469   1.444       .  S
C2469      N2471   1.157       .  T
C2470      N2472   1.157       .  T
C2473      C2474   1.407       .  A
C2474      C2475   1.398       .  A
C2474      H2479   1.085       .  S
C2475      C2476   1.417       .  A
C2475      C2482   1.445       .  S
C2477      C2478   1.397       .  A
C2477      H2480   1.085       .  S
C2478      C2481   1.444       .  S
C2481      N2483   1.157       .  T
C2482      N2484   1.158       .  T
C2485      C2490   1.417       .  A
C2486      C2487   1.402       .  A
C2486      H2491   1.085       .  S
C2487      C2494   1.445       .  S
C2488      C2489   1.406       .  A
C2489      C2490   1.402       .  A
C2489      H2492   1.085       .  S
C2490      C2493   1.445       .  S
C2493      N2495   1.157       .  T
C2494      N2496   1.158       .  T
C2497      C2502   1.414       .  A
C2498      C2499   1.402       .  A
C2498      H2503   1.085       .  S
C2499      C2506   1.445       .  S
C2500      C2501   1.405       .  A
C2501      C2502   1.401       .  A
C2501      H2504   1.085       .  S
C2502      C2505   1.444       .  S
C2505      N2507   1.157       .  T
C2506      N2508   1.157       .  T
C2509      C2514   1.411       .  A
C2510      C2511   1.395       .  A
C2510      H2515   1.085       .  S
C2511      C2518   1.445       .  S
C2512      C2513   1.404       .  A
C2513      C2514   1.399       .  A
C2513      H2516   1.085       .  S
C2514      C2517   1.445       .  S
C2517      N2519   1.157       .  T
C2518      N2520   1.157       .  T
O2521      C2532   1.290       .  A
O2521     Eu2557   2.452       .  S
O2522      C2533   1.292       .  A
O2522     Eu2556   2.456       .  S
O2523      C2534   1.291       .  A
O2523     Eu2529   2.456       .  S
O2524      C2535   1.291       .  A
O2525      C2535   1.290       .  A
O2525     Eu2559   2.445       .  S
O2526      C2534   1.288       .  A
O2526     Eu2558   2.439   1_545  S
O2527      C2533   1.288       .  A
O2528      C2532   1.290       .  A
O2528     Eu2529   2.456       .  S
Eu2529     O2531   2.340       .  S
O2531     Eu2557   2.339       .  S
O2531     Eu2558   2.350   1_545  S
C2532      C3013   1.472       .  S
C2533      C2980   1.490       .  S
C2534      C2920   1.471       .  S
C2535      C2896   1.484       .  S
H2536      O2537   0.966       .  S
O2537     Eu2556   2.359       .  S
H2538      O2539   0.966       .  S
O2539     Eu2559   2.364       .  S
O2540      C2563   1.291       .  A
O2540     Eu3564   2.454       .  S
O2541      C2564   1.288       .  A
O2541     Eu3565   2.444       .  S
O2542      C2565   1.294       .  A
O2543      C2566   1.291       .  A
O2544      C2567   1.290       .  A
O2544     Eu2559   2.450   1_565  S
O2545      C2568   1.292   1_565  A
O2545     Eu2558   2.459       .  S
O2546      C2569   1.292       .  A
O2546     Eu2560   2.464       .  S
O2547      C2570   1.293       .  A
O2548      C2569   1.291       .  A
O2548     Eu3566   2.457       .  S
O2549      C2570   1.290       .  A
O2549     Eu3567   2.455       .  S
O2550      C2565   1.290       .  A
O2550     Eu2556   2.451       .  S
O2551      C2568   1.292       .  A
O2551     Eu2557   2.467       .  S
O2552      C2567   1.293   1_545  A
O2553      C2566   1.292       .  A
O2554      C2563   1.290       .  A
O2555      C2564   1.293       .  A
O2555     Eu2560   2.463       .  S
Eu2556     O3548   2.469   1_545  S
Eu2556     O3570   2.351   1_545  S
Eu2557     O3549   2.439   1_545  S
Eu2557     O3580   2.358   1_545  S
Eu2558     O3556   2.457       .  S
Eu2558     O3580   2.351       .  S
Eu2558     O3066   2.349       .  S
Eu2559     O3557   2.456   1_545  S
Eu2559     O3569   2.354   1_545  S
Eu2559     O3078   2.348   1_545  S
Eu2560     O2572   2.347       .  S
O2561     Eu3567   2.355       .  S
O2562     Eu3564   2.355       .  S
O2562     Eu3062   2.351       .  S
C2563      C2989   1.488       .  S
C2564      C3004   1.484       .  S
C2565      C2944   1.487       .  S
C2566      C2929   1.485       .  S
C2567      C2968   1.488       .  S
C2568      C2953   1.490       .  S
C2569      C2905   1.480       .  S
C2570      C2881   1.486       .  S
H2571      O2572   0.966       .  S
O2572     Eu3565   2.350       .  S
O2572     Eu3566   2.350       .  S
H2573      O2574   0.966       .  S
O2574     Eu3063   2.351   1_556  S
O2575      C2586   1.290       .  A
O2575     Eu2611   2.453       .  S
O2576      C2587   1.292       .  A
O2576     Eu2610   2.456       .  S
O2577      C2588   1.289       .  A
O2577     Eu2583   2.450       .  S
O2578      C2589   1.292       .  A
O2579      C2589   1.290       .  A
O2579     Eu2613   2.450       .  S
O2580      C2588   1.292       .  A
O2580     Eu2612   2.457       .  S
O2581      C2587   1.288       .  A
O2581     Eu2583   2.444       .  S
O2582      C2586   1.289       .  A
O2582     Eu2583   2.447       .  S
Eu2583     O2585   2.341       .  S
Eu2583     O2591   2.356       .  S
O2584     Eu2613   2.354       .  S
O2585     Eu2611   2.346       .  S
O2585     Eu2612   2.346       .  S
C2586      C3016   1.471       .  S
C2587      C2977   1.491       .  S
C2588      C2809   1.481       .  S
C2589      C2785   1.483       .  S
H2590      O2591   0.966       .  S
O2591     Eu2612   2.348       .  S
O2591     Eu2610   2.354       .  S
H2592      O2593   0.966       .  S
O2593     Eu2613   2.355       .  S
O2594      C2617   1.292       .  A
O2594     Eu2610   2.458       .  S
O2595      C2618   1.289       .  A
O2595     Eu2611   2.448       .  S
O2596      C2619   1.293       .  A
O2596     Eu2612   2.469       .  S
O2597      C2620   1.293       .  A
O2597     Eu2613   2.463       .  S
O2598      C2621   1.295       .  A
O2598     Eu2613   2.477       .  S
O2599      C2622   1.293       .  A
O2599     Eu2612   2.464       .  S
O2600      C2623   1.293       .  A
O2600     Eu2614   2.460       .  S
O2601      C2624   1.291       .  A
O2602      C2623   1.288       .  A
O2602     Eu2612   2.441       .  S
O2603      C2624   1.292       .  A
O2603     Eu2613   2.463       .  S
O2604      C2619   1.293       .  A
O2604     Eu2610   2.469       .  S
O2605      C2622   1.287       .  A
O2605     Eu2611   2.438       .  S
O2606      C2621   1.290       .  A
O2607      C2620   1.293       .  A
O2608      C2617   1.288       .  A
O2608     Eu2614   2.444       .  S
O2609      C2618   1.292       .  A
O2609     Eu2614   2.458       .  S
Eu2610     O2616   2.349       .  S
Eu2611     O2626   2.351       .  S
Eu2612     O2626   2.357       .  S
Eu2612     O2616   2.352       .  S
Eu2613     O2615   2.348       .  S
Eu2613     O2628   2.354       .  S
Eu2614     O2626   2.351       .  S
Eu2614     O2616   2.355       .  S
C2617      C2992   1.489       .  S
C2618      C3001   1.483       .  S
C2619      C2857   1.489       .  S
C2620      C2869   1.486       .  S
C2621      C2833   1.493       .  S
C2622      C2845   1.487       .  S
C2623      C2821   1.487       .  S
C2624      C2797   1.482       .  S
H2625      O2626   0.966       .  S
H2627      O2628   0.966       .  S
O2629      C2640   1.291       .  A
O2629     Eu2665   2.459       .  S
O2630      C2641   1.293       .  A
O2630     Eu2664   2.465       .  S
O2631      C2642   1.293       .  A
O2631     Eu2637   2.463       .  S
O2632      C2643   1.289       .  A
O2632     Eu3645   2.444   1_545  S
O2633      C2643   1.293       .  A
O2633     Eu2667   2.462       .  S
O2634      C2642   1.290       .  A
O2634     Eu2666   2.452       .  S
O2635      C2641   1.292       .  A
O2635     Eu2637   2.464       .  S
O2636      C2640   1.292       .  A
O2636     Eu2637   2.458       .  S
Eu2637     O3640   2.466       .  S
Eu2637     O3655   2.352       .  S
Eu2637     O2639   2.352       .  S
Eu2637     O3646   2.349       .  S
Eu2637     O2645   2.351       .  S
O2638     Eu3645   2.353   1_545  S
O2638     Eu2667   2.350       .  S
O2638     Eu3672   2.349   1_545  S
O2639     Eu2665   2.348       .  S
O2639     Eu2666   2.349       .  S
C2640      C3973   1.489       .  S
C2641      C3964   1.492       .  S
C2642      C2752   1.495       .  S
C2643      C2740   1.484       .  S
H2644      O2645   0.966       .  S
O2645     Eu2666   2.361       .  S
O2645     Eu2664   2.350       .  S
H2646      O2647   0.966       .  S
O2647     Eu3645   2.350   1_545  S
O2647     Eu3673   2.353       .  S
O2647     Eu2667   2.358       .  S
O2648      C2671   1.290       .  A
O2648     Eu2664   2.451       .  S
O2649      C2672   1.292       .  A
O2649     Eu2665   2.461       .  S
O2650      C2673   1.292       .  A
O2650     Eu2666   2.458       .  S
O2651      C2674   1.293       .  A
O2651     Eu2667   2.467       .  S
O2652      C2675   1.293       .  A
O2652     Eu2667   2.464       .  S
O2653      C2676   1.293       .  A
O2653     Eu2666   2.472       .  S
O2654      C2677   1.288       .  A
O2654     Eu2668   2.444       .  S
O2655      C2678   1.287       .  A
O2655     Eu3676   2.439       .  S
O2656      C2677   1.293       .  A
O2656     Eu2666   2.466       .  S
O2657      C2678   1.293       .  A
O2657     Eu2667   2.466       .  S
O2658      C2673   1.290       .  A
O2658     Eu2664   2.454       .  S
O2659      C2676   1.291       .  A
O2659     Eu2665   2.456       .  S
O2660      C2675   1.290       .  A
O2660     Eu3673   2.448       .  S
O2661      C2674   1.290       .  A
O2661     Eu3672   2.448   1_545  S
O2662      C2671   1.290       .  A
O2662     Eu2668   2.452       .  S
O2663      C2672   1.289       .  A
O2663     Eu2668   2.448       .  S
Eu2664     O3669   2.462       .  S
Eu2664     O3646   2.347       .  S
Eu2664     O3690   2.352       .  S
Eu2664     O2670   2.359       .  S
Eu2665     O3668   2.447       .  S
Eu2665     O3655   2.350       .  S
Eu2665     O3677   2.352       .  S
Eu2665     O2680   2.347       .  S
Eu2666     O2680   2.347       .  S
Eu2666     O2670   2.354       .  S
Eu2667     O2669   2.349       .  S
Eu2667     O2682   2.352       .  S
Eu2668     O3663   2.437       .  S
Eu2668     O3677   2.350       .  S
Eu2668     O2680   2.352       .  S
Eu2668     O3690   2.348       .  S
Eu2668     O2670   2.349       .  S
O2669     Eu3673   2.343       .  S
O2669     Eu3676   2.341       .  S
C2671      C3949   1.480       .  S
C2672      C3940   1.482       .  S
C2673      C2824   1.489       .  S
C2674      C2812   1.482       .  S
C2675      C2788   1.483       .  S
C2676      C2800   1.483       .  S
C2677      C2761   1.479       .  S
C2678      C2773   1.486       .  S
H2679      O2680   0.966       .  S
H2681      O2682   0.966       .  S
O2682     Eu3672   2.352   1_545  S
O2682     Eu3676   2.354       .  S
O2683      C2694   1.291       .  A
O2683     Eu2719   2.455       .  S
O2684      C2695   1.294       .  A
O2684     Eu2718   2.477       .  S
O2685      C2696   1.292       .  A
O2686      C2697   1.293       .  A
O2686     Eu2691   2.470   1_556  S
O2687      C2697   1.290       .  A
O2687     Eu2721   2.449       .  S
O2688      C2696   1.291       .  A
O2688     Eu2720   2.456       .  S
O2689      C2695   1.290       .  A
O2689     Eu2691   2.452       .  S
O2690      C2694   1.291       .  A
O2690     Eu2691   2.453       .  S
Eu2691     O2701   2.353   1_554  S
Eu2691     O2692   2.352   1_554  S
O2692     Eu2721   2.352       .  S
O2692     Eu2718   2.352   1_556  S
O2693     Eu2720   2.352       .  S
C2696      C2848   1.487       .  S
C2697      C2860   1.485       .  S
H2698      O2699   0.966       .  S
O2699     Eu2720   2.356       .  S
H2700      O2701   0.966       .  S
O2701     Eu2719   2.355   1_556  S
O2701     Eu2721   2.355       .  S
O2702      C2725   1.292       .  A
O2702     Eu2718   2.458       .  S
O2703      C2726   1.290   1_554  A
O2703     Eu2719   2.452       .  S
O2704      C2727   1.293       .  A
O2704     Eu2720   2.465       .  S
O2705      C2728   1.292       .  A
O2705     Eu2721   2.464       .  S
O2706      C2729   1.290       .  A
O2706     Eu2721   2.454       .  S
O2707      C2730   1.291       .  A
O2707     Eu2720   2.460       .  S
O2708      C2731   1.295       .  A
O2709      C2732   1.293       .  A
O2709     Eu2722   2.471       .  S
O2710      C2731   1.292       .  A
O2710     Eu2720   2.466       .  S
O2711      C2732   1.290       .  A
O2711     Eu2721   2.455       .  S
O2712      C2727   1.290       .  A
O2713      C2730   1.292       .  A
O2714      C2729   1.292       .  A
O2714     Eu2719   2.460   1_556  S
O2715      C2728   1.288       .  A
O2715     Eu2718   2.438   1_556  S
O2716      C2725   1.289       .  A
O2716     Eu2722   2.447   1_554  S
O2717      C2726   1.292       .  A
O2717     Eu2722   2.455       .  S
Eu2718     O2736   2.360   1_554  S
Eu2719     O2723   2.349   1_554  S
Eu2720     O2734   2.354       .  S
Eu2720     O2724   2.345       .  S
Eu2721     O2723   2.345       .  S
Eu2721     O2736   2.348       .  S
Eu2722     O2723   2.340       .  S
Eu2722     O2736   2.353       .  S
C2727      C2749   1.496       .  S
C2728      C2764   1.478       .  S
C2729      C2776   1.488       .  S
C2730      C2737   1.487       .  S
C2731      C2836   1.495       .  S
C2732      C2872   1.487       .  S
H2733      O2734   0.966       .  S
H2735      O2736   0.966       .  S
C2737      C2738   1.406       .  A
C2737      C2742   1.415       .  A
C2738      C2739   1.401       .  A
C2738      H2743   1.085       .  S
C2739      C2740   1.416       .  A
C2739      C2746   1.446       .  S
C2740      C2741   1.404       .  A
C2741      C2742   1.399       .  A
C2741      H2744   1.085       .  S
C2742      C2745   1.445       .  S
C2745      N2747   1.157       .  T
C2746      N2748   1.157       .  T
C2749      C2750   1.407       .  A
C2749      C2754   1.418       .  A
C2750      C2751   1.400       .  A
C2750      H2755   1.085       .  S
C2751      C2752   1.419       .  A
C2751      C2758   1.445       .  S
C2752      C2753   1.407       .  A
C2753      C2754   1.401       .  A
C2753      H2756   1.085       .  S
C2754      C2757   1.445       .  S
C2757      N2759   1.157       .  T
C2758      N2760   1.157       .  T
C2761      C2762   1.403       .  A
C2761      C2766   1.416       .  A
C2762      C2763   1.397       .  A
C2762      H2767   1.085       .  S
C2763      C2764   1.411       .  A
C2763      C2770   1.444       .  S
C2764      C2765   1.405       .  A
C2765      C2766   1.401       .  A
C2765      H2768   1.085       .  S
C2766      C2769   1.446       .  S
C2769      N2771   1.158       .  T
C2770      N2772   1.157       .  T
C2773      C2774   1.404       .  A
C2773      C2778   1.417       .  A
C2774      C2775   1.400       .  A
C2774      H2779   1.085       .  S
C2775      C2776   1.417       .  A
C2775      C2782   1.445       .  S
C2776      C2777   1.405       .  A
C2777      C2778   1.399       .  A
C2777      H2780   1.085       .  S
C2778      C2781   1.446       .  S
C2781      N2783   1.158       .  T
C2782      N2784   1.157       .  T
C2785      C2786   1.404       .  A
C2785      C2790   1.415       .  A
C2786      C2787   1.399       .  A
C2786      H2791   1.084       .  S
C2787      C2788   1.416       .  A
C2787      C2794   1.445       .  S
C2788      C2789   1.404       .  A
C2789      C2790   1.400       .  A
C2789      H2792   1.085       .  S
C2790      C2793   1.445       .  S
C2793      N2795   1.157       .  T
C2794      N2796   1.157       .  T
C2797      C2798   1.404       .  A
C2797      C2802   1.414       .  A
C2798      C2799   1.401       .  A
C2798      H2803   1.085       .  S
C2799      C2800   1.412       .  A
C2799      C2806   1.443       .  S
C2800      C2801   1.405       .  A
C2801      C2802   1.403       .  A
C2801      H2804   1.085       .  S
C2802      C2805   1.444       .  S
C2805      N2807   1.157       .  T
C2806      N2808   1.157       .  T
C2809      C2810   1.404       .  A
C2809      C2814   1.416       .  A
C2810      C2811   1.398       .  A
C2810      H2815   1.085       .  S
C2811      C2812   1.412       .  A
C2811      C2818   1.444       .  S
C2812      C2813   1.406       .  A
C2813      C2814   1.402       .  A
C2813      H2816   1.085       .  S
C2814      C2817   1.446       .  S
C2817      N2819   1.158       .  T
C2818      N2820   1.157       .  T
C2821      C2822   1.403       .  A
C2821      C2826   1.417       .  A
C2822      C2823   1.397       .  A
C2822      H2827   1.082       .  S
C2823      C2824   1.416       .  A
C2823      C2830   1.445       .  S
C2824      C2825   1.406       .  A
C2825      C2826   1.400       .  A
C2825      H2828   1.083       .  S
C2826      C2829   1.446       .  S
C2829      N2831   1.158       .  T
C2830      N2832   1.157       .  T
C2833      C2834   1.404       .  A
C2833      C2838   1.418       .  A
C2834      C2835   1.403       .  A
C2834      H2839   1.085       .  S
C2835      C2836   1.416       .  A
C2835      C2842   1.442       .  S
C2836      C2837   1.406       .  A
C2837      C2838   1.405       .  A
C2837      H2840   1.085       .  S
C2838      C2841   1.445       .  S
C2841      N2843   1.157       .  T
C2842      N2844   1.156       .  T
C2845      C2846   1.405       .  A
C2845      C2850   1.418       .  A
C2846      C2847   1.400       .  A
C2846      H2851   1.085       .  S
C2847      C2848   1.416       .  A
C2847      C2854   1.445       .  S
C2848      C2849   1.405       .  A
C2849      C2850   1.398       .  A
C2849      H2852   1.085       .  S
C2850      C2853   1.446       .  S
C2853      N2855   1.158       .  T
C2854      N2856   1.157       .  T
C2857      C2858   1.406       .  A
C2857      C2862   1.415       .  A
C2858      C2859   1.403       .  A
C2858      H2863   1.085       .  S
C2859      C2860   1.415       .  A
C2859      C2866   1.445       .  S
C2860      C2861   1.403       .  A
C2861      C2862   1.402       .  A
C2861      H2864   1.085       .  S
C2862      C2865   1.443       .  S
C2865      N2867   1.157       .  T
C2866      N2868   1.157       .  T
C2869      C2870   1.404       .  A
C2869      C2874   1.413       .  A
C2870      C2871   1.401       .  A
C2870      H2875   1.085       .  S
C2871      C2872   1.415       .  A
C2871      C2878   1.444       .  S
C2872      C2873   1.405       .  A
C2873      C2874   1.404       .  A
C2873      H2876   1.085       .  S
C2874      C2877   1.442       .  S
C2877      N2879   1.156       .  T
C2878      N2880   1.157       .  T
C2881      C2886   1.417       .  A
C2882      C2883   1.398       .  A
C2882      H2887   1.085       .  S
C2883      C2890   1.445       .  S
C2884      C2885   1.405       .  A
C2885      C2886   1.402       .  A
C2885      H2888   1.085       .  S
C2886      C2889   1.445       .  S
C2889      N2891   1.157       .  T
C2890      N2892   1.157       .  T
C2893      C2894   1.405       .  A
C2894      C2895   1.399       .  A
C2894      H2899   1.085       .  S
C2895      C2896   1.415       .  A
C2895      C2902   1.445       .  S
C2897      C2898   1.399       .  A
C2897      H2900   1.085       .  S
C2898      C2901   1.445       .  S
C2901      N2903   1.158       .  T
C2902      N2904   1.157       .  T
C2905      C2906   1.404       .  A
C2906      C2907   1.404       .  A
C2906      H2911   1.085       .  S
C2907      C2908   1.414       .  A
C2907      C2914   1.444       .  S
C2909      C2910   1.402       .  A
C2909      H2912   1.085       .  S
C2910      C2913   1.444       .  S
C2913      N2915   1.157       .  T
C2914      N2916   1.157       .  T
C2917      C2918   1.403       .  A
C2918      C2919   1.397       .  A
C2918      H2923   1.085       .  S
C2919      C2920   1.413       .  A
C2919      C2926   1.444       .  S
C2921      C2922   1.398       .  A
C2921      H2924   1.085       .  S
C2922      C2925   1.444       .  S
C2925      N2927   1.157       .  T
C2926      N2928   1.157       .  T
C2929      C2930   1.407       .  A
C2929      C3942   1.413   1_545  A
C2930      C2931   1.404       .  A
C2930      H2935   1.085       .  S
C2931      C2932   1.414       .  A
C2931      C2938   1.444       .  S
C2932      C3680   1.481       .  S
C2932      C3941   1.402   1_545  A
C2933      C3940   1.404       .  A
C2933      C2934   1.398       .  A
C2933      H2936   1.085       .  S
C2934      C3937   1.414       .  A
C2934      C2937   1.445       .  S
C2937      N2939   1.157       .  T
C2938      N2940   1.157       .  T
C2941      C3679   1.485       .  S
C2941      C3950   1.404   1_565  A
C2941      C2946   1.416       .  A
C2942      C3949   1.404       .  A
C2942      C2943   1.400       .  A
C2942      H2947   1.085       .  S
C2943      C3952   1.416       .  A
C2943      C2950   1.444       .  S
C2944      C3951   1.416       .  A
C2944      C2945   1.406   1_545  A
C2945      C2946   1.401       .  A
C2945      H2948   1.085       .  S
C2946      C2949   1.445       .  S
C2949      N2951   1.157       .  T
C2950      N2952   1.157       .  T
C2953      C3962   1.406   1_545  A
C2953      C2958   1.416       .  A
C2954      C3961   1.406       .  A
C2954      C2955   1.403       .  A
C2954      H2959   1.085       .  S
C2955      C3964   1.416       .  A
C2955      C2962   1.444       .  S
C2956      C3649   1.487       .  S
C2956      C3963   1.416       .  A
C2956      C2957   1.404   1_565  A
C2957      C2958   1.401       .  A
C2957      H2960   1.085       .  S
C2958      C2961   1.444       .  S
C2961      N2963   1.157       .  T
C2962      N2964   1.157       .  T
C2965      C3648   1.488       .  S
C2965      C2966   1.406       .  A
C2965      C3978   1.416   1_565  A
C2966      C2967   1.401       .  A
C2966      H2971   1.085       .  S
C2967      C2968   1.417       .  A
C2967      C2974   1.445       .  S
C2968      C3977   1.405   1_565  A
C2969      C3976   1.405       .  A
C2969      C2970   1.400       .  A
C2969      H2972   1.085       .  S
C2970      C3973   1.417       .  A
C2970      C2973   1.445       .  S
C2973      N2975   1.157       .  T
C2974      N2976   1.158       .  T
C2977      C2978   1.407       .  A
C2978      C2979   1.398       .  A
C2978      H2983   1.085       .  S
C2979      C2980   1.418       .  A
C2979      C2986   1.446       .  S
C2981      C2982   1.398       .  A
C2981      H2984   1.085       .  S
C2982      C2985   1.445       .  S
C2985      N2987   1.158       .  T
C2986      N2988   1.158       .  T
C2989      C2994   1.416       .  A
C2990      C2991   1.400       .  A
C2990      H2995   1.085       .  S
C2991      C2998   1.445       .  S
C2992      C2993   1.407       .  A
C2993      C2994   1.399       .  A
C2993      H2996   1.085       .  S
C2994      C2997   1.445       .  S
C2997      N2999   1.157       .  T
C2998      N3000   1.157       .  T
C3001      C3006   1.415       .  A
C3002      C3003   1.402       .  A
C3002      H3007   1.085       .  S
C3003      C3010   1.445       .  S
C3004      C3005   1.404       .  A
C3005      C3006   1.399       .  A
C3005      H3008   1.085       .  S
C3006      C3009   1.445       .  S
C3009      N3011   1.157       .  T
C3010      N3012   1.158       .  T
C3013      C3018   1.412       .  A
C3014      C3015   1.398       .  A
C3014      H3019   1.085       .  S
C3015      C3022   1.444       .  S
C3016      C3017   1.403       .  A
C3017      C3018   1.402       .  A
C3017      H3020   1.085       .  S
C3018      C3021   1.444       .  S
C3021      N3023   1.157       .  T
C3022      N3024   1.157       .  T
O3025      C3036   1.291       .  A
O3025     Eu3061   2.452       .  S
O3026      C3037   1.291       .  A
O3026     Eu3060   2.451       .  S
O3027      C3038   1.291       .  A
O3027     Eu3033   2.456   1_554  S
O3028      C3039   1.290       .  A
O3029      C3039   1.291       .  A
O3029     Eu3063   2.451       .  S
O3030      C3038   1.289       .  A
O3030     Eu3062   2.450   1_554  S
O3031      C3037   1.290       .  A
O3031     Eu3537   2.452       .  S
O3032      C3036   1.287       .  A
O3032     Eu3033   2.438   1_554  S
Eu3033     O3535   2.432       .  S
Eu3033     O3035   2.342   1_556  S
Eu3033     O3545   2.347       .  S
O3034     Eu3567   2.346       .  S
O3035     Eu3061   2.349       .  S
O3035     Eu3062   2.350   1_554  S
C3036      C3517   1.474       .  S
C3037      C3484   1.489       .  S
C3038      C3424   1.483       .  S
C3039      C3400   1.483       .  S
H3040      O3041   0.966       .  S
O3041     Eu3537   2.352       .  S
O3041     Eu3566   2.354       .  S
O3041     Eu3060   2.359       .  S
H3042      O3043   0.966       .  S
O3043     Eu3063   2.352       .  S
O3044      C3067   1.294       .  A
O3045      C3068   1.290       .  A
O3046      C3069   1.296       .  A
O3046     Eu3566   2.478       .  S
O3047      C3070   1.289       .  A
O3047     Eu3567   2.451       .  S
O3048      C3071   1.291       .  A
O3048     Eu3063   2.454       .  S
O3049      C3072   1.293       .  A
O3049     Eu3062   2.464   1_554  S
O3050      C3073   1.288       .  A
O3050     Eu3064   2.445   1_556  S
O3051      C3074   1.290       .  A
O3052      C3073   1.289   1_554  A
O3053      C3074   1.291       .  A
O3054      C3069   1.288       .  A
O3054     Eu3060   2.442       .  S
O3055      C3072   1.292       .  A
O3055     Eu3061   2.461       .  S
O3056      C3071   1.293       .  A
O3057      C3070   1.293       .  A
O3058      C3067   1.290       .  A
O3058     Eu3568   2.454       .  S
O3059      C3068   1.293       .  A
O3059     Eu3064   2.467       .  S
Eu3062     O3550   2.470       .  S
Eu3062     O3545   2.353       .  S
Eu3063     O3551   2.458   1_554  S
Eu3063     O3538   2.349   1_554  S
Eu3064     O3562   2.442   1_554  S
Eu3064     O3076   2.342       .  S
Eu3064     O3570   2.348   1_554  S
O3066     Eu3568   2.356       .  S
C3067      C3493   1.489       .  S
C3068      C3508   1.484       .  S
C3069      C3448   1.488       .  S
C3070      C3433   1.485       .  S
C3071      C3472   1.483       .  S
C3072      C3457   1.487       .  S
C3073      C3409   1.489       .  S
C3074      C3385   1.478       .  S
H3075      O3076   0.965       .  S
H3077      O3078   0.966       .  S
O3079      C3090   1.289       .  A
O3079     Eu3115   2.446       .  S
O3080      C3091   1.293       .  A
O3080     Eu3114   2.463       .  S
O3081      C3092   1.291       .  A
O3081     Eu3087   2.457       .  S
O3082      C3093   1.293       .  A
O3083      C3093   1.287       .  A
O3083     Eu3117   2.431       .  S
O3084      C3092   1.291       .  A
O3084     Eu3116   2.453       .  S
O3085      C3091   1.290       .  A
O3085     Eu3087   2.451       .  S
O3086      C3090   1.289       .  A
O3086     Eu3087   2.449       .  S
Eu3087     O3089   2.350       .  S
Eu3087     O3095   2.355       .  S
O3088     Eu3117   2.354       .  S
O3089     Eu3115   2.348       .  S
O3089     Eu3116   2.358       .  S
C3090      C3520   1.476       .  S
C3091      C3481   1.491       .  S
C3092      C3313   1.481       .  S
C3093      C3289   1.474       .  S
H3094      O3095   0.966       .  S
O3095     Eu3116   2.354       .  S
O3095     Eu3114   2.350       .  S
H3096      O3097   0.966       .  S
O3097     Eu3117   2.355       .  S
O3098      C3121   1.294       .  A
O3098     Eu3114   2.468       .  S
O3099      C3122   1.287       .  A
O3099     Eu3115   2.438       .  S
O3100      C3123   1.294       .  A
O3100     Eu3116   2.475       .  S
O3101      C3124   1.293       .  A
O3101     Eu3117   2.465       .  S
O3102      C3125   1.292       .  A
O3102     Eu3117   2.464       .  S
O3103      C3126   1.294       .  A
O3103     Eu3116   2.467       .  S
O3104      C3127   1.291       .  A
O3104     Eu3118   2.452       .  S
O3105      C3128   1.287       .  A
O3106      C3127   1.292       .  A
O3106     Eu3116   2.461       .  S
O3107      C3128   1.290       .  A
O3107     Eu3117   2.448       .  S
O3108      C3123   1.291       .  A
O3108     Eu3114   2.458       .  S
O3109      C3126   1.288       .  A
O3109     Eu3115   2.444       .  S
O3110      C3125   1.290       .  A
O3111      C3124   1.290       .  A
O3112      C3121   1.289       .  A
O3112     Eu3118   2.447       .  S
O3113      C3122   1.294       .  A
O3113     Eu3118   2.469       .  S
Eu3114     O3120   2.347       .  S
Eu3115     O3130   2.355       .  S
Eu3116     O3130   2.355       .  S
Eu3116     O3120   2.343       .  S
Eu3117     O3119   2.346       .  S
Eu3117     O3132   2.349       .  S
Eu3118     O3130   2.344       .  S
Eu3118     O3120   2.350       .  S
C3121      C3496   1.488       .  S
C3122      C3505   1.482       .  S
C3123      C3361   1.492       .  S
C3124      C3373   1.485       .  S
C3125      C3337   1.482       .  S
C3126      C3349   1.492       .  S
C3127      C3325   1.480       .  S
C3128      C3301   1.487       .  S
H3129      O3130   0.966       .  S
H3131      O3132   0.966       .  S
O3133      C3144   1.292       .  A
O3133     Eu3169   2.464       .  S
O3134      C3145   1.292       .  A
O3134     Eu3168   2.457   1_565  S
O3135      C3146   1.290       .  A
O3135     Eu3141   2.443       .  S
O3136      C3147   1.292       .  A
O3137      C3147   1.291       .  A
O3137     Eu3171   2.460       .  S
O3138      C3146   1.290       .  A
O3138     Eu3170   2.451       .  S
O3139      C3145   1.291       .  A
O3139     Eu3141   2.455       .  S
O3140      C3144   1.292       .  A
O3140     Eu3141   2.467       .  S
Eu3141     O3143   2.345       .  S
Eu3141     O3149   2.359       .  S
O3142     Eu3171   2.349       .  S
O3143     Eu3169   2.346       .  S
O3143     Eu3170   2.352       .  S
C3146      C3256   1.482       .  S
C3147      C3244   1.483       .  S
H3148      O3149   0.964       .  S
O3149     Eu3170   2.351       .  S
O3149     Eu3168   2.353   1_565  S
H3150      O3151   0.966       .  S
O3151     Eu3171   2.354       .  S
O3152      C3175   1.293       .  A
O3152     Eu3168   2.463       .  S
O3153      C3176   1.294       .  A
O3153     Eu3169   2.473   1_545  S
O3154      C3177   1.293       .  A
O3154     Eu3170   2.468       .  S
O3155      C3178   1.291       .  A
O3155     Eu3171   2.456       .  S
O3156      C3179   1.290       .  A
O3156     Eu3171   2.448       .  S
O3157      C3180   1.289       .  A
O3157     Eu3170   2.446       .  S
O3158      C3181   1.289       .  A
O3158     Eu3172   2.450   1_565  S
O3159      C3182   1.289       .  A
O3160      C3181   1.291       .  A
O3160     Eu3170   2.457       .  S
O3161      C3182   1.293       .  A
O3161     Eu3171   2.465       .  S
O3162      C3177   1.290       .  A
O3162     Eu3168   2.450   1_565  S
O3163      C3180   1.292       .  A
O3163     Eu3169   2.453       .  S
O3164      C3179   1.292       .  A
O3165      C3178   1.291       .  A
O3166      C3175   1.288       .  A
O3166     Eu3172   2.439       .  S
O3167      C3176   1.290       .  A
O3167     Eu3172   2.458       .  S
Eu3168     O3174   2.349   1_545  S
Eu3169     O3184   2.355       .  S
Eu3170     O3184   2.358       .  S
Eu3170     O3174   2.341       .  S
Eu3171     O3173   2.353       .  S
Eu3171     O3186   2.352       .  S
Eu3172     O3184   2.348   1_545  S
Eu3172     O3174   2.345   1_545  S
C3177      C3328   1.482       .  S
C3178      C3316   1.481       .  S
C3179      C3292   1.477       .  S
C3180      C3304   1.487       .  S
C3181      C3265   1.482       .  S
C3182      C3277   1.482       .  S
H3183      O3184   0.965       .  S
H3185      O3186   0.966       .  S
O3187      C3198   1.291       .  A
O3187     Eu3223   2.452       .  S
O3188      C3199   1.293       .  A
O3188     Eu3222   2.472       .  S
O3189      C3200   1.294       .  A
O3189     Eu3699   2.467       .  S
O3190      C3201   1.293       .  A
O3190     Eu3195   2.467       .  S
O3191      C3201   1.290       .  A
O3191     Eu3225   2.457       .  S
O3192      C3200   1.289       .  A
O3192     Eu3224   2.446       .  S
O3193      C3199   1.290       .  A
O3193     Eu3195   2.452       .  S
O3194      C3198   1.290       .  A
O3194     Eu3195   2.451       .  S
Eu3195     O3693   2.457       .  S
Eu3195     O3205   2.347       .  S
Eu3195     O3701   2.353       .  S
Eu3195     O3196   2.351       .  S
Eu3195     O3707   2.358       .  S
O3196     Eu3225   2.344       .  S
O3196     Eu3222   2.349       .  S
O3197     Eu3699   2.356       .  S
O3197     Eu3727   2.349       .  S
O3197     Eu3224   2.349       .  S
C3198      C3925   1.478       .  S
C3199      C3916   1.477       .  S
C3200      C3352   1.494       .  S
C3201      C3364   1.490       .  S
H3202      O3203   0.966       .  S
O3203     Eu3699   2.353       .  S
O3203     Eu3224   2.354       .  S
O3203     Eu3726   2.353   1_554  S
H3204      O3205   0.966       .  S
O3205     Eu3223   2.352       .  S
O3205     Eu3225   2.351       .  S
O3206      C3229   1.293       .  A
O3206     Eu3222   2.464       .  S
O3207      C3230   1.289       .  A
O3207     Eu3223   2.443       .  S
O3208      C3231   1.291       .  A
O3208     Eu3224   2.453       .  S
O3209      C3232   1.291       .  A
O3209     Eu3225   2.460       .  S
O3210      C3233   1.288       .  A
O3210     Eu3225   2.440       .  S
O3211      C3234   1.292       .  A
O3211     Eu3224   2.469       .  S
O3212      C3235   1.291       .  A
O3212     Eu3730   2.455   1_554  S
O3213      C3236   1.293       .  A
O3213     Eu3226   2.463       .  S
O3214      C3235   1.289       .  A
O3214     Eu3224   2.445       .  S
O3215      C3236   1.289       .  A
O3215     Eu3225   2.446       .  S
O3216      C3231   1.288       .  A
O3216     Eu3726   2.443   1_554  S
O3217      C3234   1.293       .  A
O3217     Eu3727   2.467       .  S
O3218      C3233   1.293       .  A
O3218     Eu3223   2.465       .  S
O3219      C3232   1.291       .  A
O3219     Eu3222   2.458       .  S
O3220      C3229   1.289       .  A
O3220     Eu3226   2.443       .  S
O3221      C3230   1.292       .  A
O3221     Eu3226   2.462       .  S
Eu3222     O3720   2.457       .  S
Eu3222     O3707   2.357       .  S
Eu3222     O3240   2.353       .  S
Eu3222     O3732   2.348       .  S
Eu3223     O3721   2.473       .  S
Eu3223     O3701   2.350       .  S
Eu3223     O3227   2.350       .  S
Eu3223     O3742   2.352       .  S
Eu3224     O3238   2.344       .  S
Eu3224     O3228   2.349       .  S
Eu3225     O3227   2.353       .  S
Eu3225     O3240   2.350       .  S
Eu3226     O3716   2.470       .  S
Eu3226     O3227   2.344       .  S
Eu3226     O3742   2.347       .  S
Eu3226     O3240   2.363       .  S
Eu3226     O3732   2.346       .  S
O3228     Eu3726   2.348   1_554  S
O3228     Eu3730   2.351   1_554  S
C3229      C3892   1.483       .  S
C3230      C3901   1.480       .  S
C3231      C3253   1.482       .  S
C3232      C3268   1.484       .  S
C3233      C3280   1.479       .  S
C3234      C3241   1.486       .  S
C3235      C3340   1.479       .  S
C3236      C3376   1.484       .  S
H3237      O3238   0.966       .  S
O3238     Eu3727   2.345       .  S
O3238     Eu3730   2.351   1_554  S
H3239      O3240   0.966       .  S
C3241      C3242   1.405       .  A
C3241      C3246   1.415       .  A
C3242      C3243   1.403       .  A
C3242      H3247   1.085       .  S
C3243      C3244   1.413       .  A
C3243      C3250   1.444       .  S
C3244      C3245   1.404       .  A
C3245      C3246   1.402       .  A
C3245      H3248   1.085       .  S
C3246      C3249   1.444       .  S
C3249      N3251   1.157       .  T
C3250      N3252   1.157       .  T
C3253      C3254   1.405       .  A
C3253      C3258   1.415       .  A
C3254      C3255   1.397       .  A
C3254      H3259   1.085       .  S
C3255      C3256   1.414       .  A
C3255      C3262   1.445       .  S
C3256      C3257   1.406       .  A
C3257      C3258   1.398       .  A
C3257      H3260   1.085       .  S
C3258      C3261   1.446       .  S
C3261      N3263   1.158       .  T
C3262      N3264   1.157       .  T
C3265      C3266   1.405       .  A
C3265      C3270   1.414       .  A
C3266      C3267   1.401       .  A
C3266      H3271   1.085       .  S
C3267      C3268   1.415       .  A
C3267      C3274   1.444       .  S
C3268      C3269   1.405       .  A
C3269      C3270   1.400       .  A
C3269      H3272   1.085       .  S
C3270      C3273   1.445       .  S
C3273      N3275   1.157       .  T
C3274      N3276   1.157       .  T
C3277      C3278   1.404       .  A
C3277      C3282   1.416       .  A
C3278      C3279   1.400       .  A
C3278      H3283   1.085       .  S
C3279      C3280   1.414       .  A
C3279      C3286   1.444       .  S
C3280      C3281   1.401       .  A
C3281      C3282   1.398       .  A
C3281      H3284   1.085       .  S
C3282      C3285   1.444       .  S
C3285      N3287   1.157       .  T
C3286      N3288   1.157       .  T
C3289      C3290   1.400       .  A
C3289      C3294   1.413       .  A
C3290      C3291   1.396       .  A
C3290      H3295   1.083       .  S
C3291      C3292   1.412       .  A
C3291      C3298   1.444       .  S
C3292      C3293   1.405       .  A
C3293      C3294   1.400       .  A
C3293      H3296   1.085       .  S
C3294      C3297   1.446       .  S
C3297      N3299   1.157       .  T
C3298      N3300   1.157       .  T
C3301      C3302   1.406       .  A
C3301      C3306   1.417       .  A
C3302      C3303   1.398       .  A
C3302      H3307   1.085       .  S
C3303      C3304   1.417       .  A
C3303      C3310   1.445       .  S
C3304      C3305   1.406       .  A
C3305      C3306   1.396       .  A
C3305      H3308   1.085       .  S
C3306      C3309   1.446       .  S
C3309      N3311   1.157       .  T
C3310      N3312   1.157       .  T
C3313      C3314   1.403       .  A
C3313      C3318   1.414       .  A
C3314      C3315   1.399       .  A
C3314      H3319   1.085       .  S
C3315      C3316   1.414       .  A
C3315      C3322   1.445       .  S
C3316      C3317   1.405       .  A
C3317      C3318   1.402       .  A
C3317      H3320   1.085       .  S
C3318      C3321   1.445       .  S
C3321      N3323   1.157       .  T
C3322      N3324   1.157       .  T
C3325      C3326   1.403       .  A
C3325      C3330   1.413       .  A
C3326      C3327   1.399       .  A
C3326      H3331   1.085       .  S
C3327      C3328   1.414       .  A
C3327      C3334   1.444       .  S
C3328      C3329   1.405       .  A
C3329      C3330   1.403       .  A
C3329      H3332   1.085       .  S
C3330      C3333   1.444       .  S
C3333      N3335   1.157       .  T
C3334      N3336   1.157       .  T
C3337      C3338   1.404       .  A
C3337      C3342   1.415       .  A
C3338      C3339   1.399       .  A
C3338      H3343   1.085       .  S
C3339      C3340   1.414       .  A
C3339      C3346   1.444       .  S
C3340      C3341   1.403       .  A
C3341      C3342   1.399       .  A
C3341      H3344   1.085       .  S
C3342      C3345   1.444       .  S
C3345      N3347   1.157       .  T
C3346      N3348   1.157       .  T
C3349      C3350   1.405       .  A
C3349      C3354   1.419       .  A
C3350      C3351   1.399       .  A
C3350      H3355   1.085       .  S
C3351      C3352   1.420       .  A
C3351      C3358   1.445       .  S
C3352      C3353   1.406       .  A
C3353      C3354   1.400       .  A
C3353      H3356   1.085       .  S
C3354      C3357   1.446       .  S
C3357      N3359   1.158       .  T
C3358      N3360   1.157       .  T
C3361      C3362   1.406       .  A
C3361      C3366   1.417       .  A
C3362      C3363   1.404       .  A
C3362      H3367   1.085       .  S
C3363      C3364   1.416       .  A
C3363      C3370   1.445       .  S
C3364      C3365   1.404       .  A
C3365      C3366   1.402       .  A
C3365      H3368   1.085       .  S
C3366      C3369   1.444       .  S
C3369      N3371   1.157       .  T
C3370      N3372   1.158       .  T
C3373      C3374   1.404       .  A
C3373      C3378   1.415       .  A
C3374      C3375   1.400       .  A
C3374      H3379   1.085       .  S
C3375      C3376   1.416       .  A
C3375      C3382   1.445       .  S
C3376      C3377   1.404       .  A
C3377      C3378   1.400       .  A
C3377      H3380   1.085       .  S
C3378      C3381   1.444       .  S
C3381      N3383   1.157       .  T
C3382      N3384   1.157       .  T
C3385      C3890   1.404   1_556  A
C3385      C3390   1.413       .  A
C3386      C3889   1.406       .  A
C3386      C3387   1.401       .  A
C3386      H3391   1.085       .  S
C3387      C3892   1.416       .  A
C3387      C3394   1.445       .  S
C3388      C3733   1.479       .  S
C3388      C3891   1.415   1_556  A
C3388      C3389   1.405       .  A
C3389      C3390   1.399       .  A
C3389      H3392   1.085       .  S
C3390      C3393   1.445       .  S
C3393      N3395   1.157       .  T
C3394      N3396   1.157       .  T
C3397      C3734   1.484       .  S
C3397      C3398   1.408       .  A
C3397      C3906   1.414   1_554  A
C3398      C3399   1.401       .  A
C3398      H3403   1.085       .  S
C3399      C3400   1.415       .  A
C3399      C3406   1.446       .  S
C3400      C3905   1.404   1_554  A
C3401      C3904   1.406       .  A
C3401      C3402   1.400       .  A
C3401      H3404   1.085       .  S
C3402      C3901   1.414       .  A
C3402      C3405   1.446       .  S
C3405      N3407   1.158       .  T
C3406      N3408   1.158       .  T
C3409      C3410   1.407       .  A
C3409      C3918   1.417   1_556  A
C3410      C3411   1.397       .  A
C3410      H3415   1.085       .  S
C3411      C3412   1.418       .  A
C3411      C3418   1.445       .  S
C3412      C3703   1.491       .  S
C3412      C3917   1.408   1_556  A
C3413      C3916   1.403       .  A
C3413      C3414   1.400       .  A
C3413      H3416   1.085       .  S
C3414      C3913   1.411       .  A
C3414      C3417   1.444       .  S
C3417      N3419   1.157       .  T
C3418      N3420   1.158       .  T
C3421      C3702   1.482       .  S
C3421      C3422   1.405       .  A
C3421      C3930   1.415   1_554  A
C3422      C3423   1.399       .  A
C3422      H3427   1.085       .  S
C3423      C3424   1.414       .  A
C3423      C3430   1.445       .  S
C3424      C3929   1.404   1_554  A
C3425      C3928   1.403       .  A
C3425      C3426   1.397       .  A
C3425      H3428   1.084       .  S
C3426      C3925   1.414       .  A
C3426      C3429   1.444       .  S
C3429      N3431   1.157       .  T
C3430      N3432   1.157       .  T
C3433      C3434   1.407       .  A
C3434      C3435   1.405       .  A
C3434      H3439   1.085       .  S
C3435      C3436   1.416       .  A
C3435      C3442   1.446       .  S
C3437      C3438   1.401       .  A
C3437      H3440   1.085       .  S
C3438      C3441   1.444       .  S
C3441      N3443   1.157       .  T
C3442      N3444   1.158       .  T
C3445      C3450   1.416       .  A
C3446      C3447   1.399       .  A
C3446      H3451   1.085       .  S
C3447      C3454   1.444       .  S
C3448      C3449   1.404       .  A
C3449      C3450   1.399       .  A
C3449      H3452   1.085       .  S
C3450      C3453   1.445       .  S
C3453      N3455   1.157       .  T
C3454      N3456   1.157       .  T
C3457      C3462   1.415       .  A
C3458      C3459   1.400       .  A
C3458      H3463   1.085       .  S
C3459      C3466   1.445       .  S
C3460      C3461   1.405       .  A
C3461      C3462   1.402       .  A
C3461      H3464   1.085       .  S
C3462      C3465   1.445       .  S
C3465      N3467   1.157       .  T
C3466      N3468   1.157       .  T
C3469      C3470   1.405       .  A
C3470      C3471   1.401       .  A
C3470      H3475   1.085       .  S
C3471      C3472   1.414       .  A
C3471      C3478   1.445       .  S
C3473      C3474   1.401       .  A
C3473      H3476   1.085       .  S
C3474      C3477   1.444       .  S
C3477      N3479   1.157       .  T
C3478      N3480   1.157       .  T
C3481      C3482   1.408       .  A
C3482      C3483   1.399       .  A
C3482      H3487   1.085       .  S
C3483      C3484   1.416       .  A
C3483      C3490   1.445       .  S
C3485      C3486   1.400       .  A
C3485      H3488   1.085       .  S
C3486      C3489   1.444       .  S
C3489      N3491   1.157       .  T
C3490      N3492   1.157       .  T
C3493      C3498   1.417       .  A
C3494      C3495   1.401       .  A
C3494      H3499   1.085       .  S
C3495      C3502   1.445       .  S
C3496      C3497   1.405       .  A
C3497      C3498   1.402       .  A
C3497      H3500   1.085       .  S
C3498      C3501   1.445       .  S
C3501      N3503   1.157       .  T
C3502      N3504   1.157       .  T
C3505      C3510   1.416       .  A
C3506      C3507   1.399       .  A
C3506      H3511   1.085       .  S
C3507      C3514   1.445       .  S
C3508      C3509   1.404       .  A
C3509      C3510   1.401       .  A
C3509      H3512   1.085       .  S
C3510      C3513   1.445       .  S
C3513      N3515   1.157       .  T
C3514      N3516   1.157       .  T
C3517      C3522   1.413       .  A
C3518      C3519   1.394       .  A
C3518      H3523   1.085       .  S
C3519      C3526   1.445       .  S
C3520      C3521   1.404       .  A
C3521      C3522   1.399       .  A
C3521      H3524   1.085       .  S
C3522      C3525   1.445       .  S
C3525      N3527   1.157       .  T
C3526      N3528   1.157       .  T
O3529      C3540   1.290       .  A
O3529     Eu3565   2.448       .  S
O3530      C3541   1.292       .  A
O3530     Eu3564   2.456       .  S
O3531      C3542   1.292       .  A
O3531     Eu3537   2.459       .  S
O3532      C3543   1.292       .  A
O3533      C3543   1.291       .  A
O3533     Eu3567   2.454       .  S
O3534      C3542   1.289       .  A
O3534     Eu3566   2.448       .  S
O3535      C3541   1.286       .  A
O3536      C3540   1.289       .  A
O3536     Eu3537   2.449       .  S
Eu3537     O3539   2.345       .  S
O3539     Eu3565   2.348       .  S
O3539     Eu3566   2.350       .  S
C3540      C4021   1.475       .  S
C3541      C3988   1.486       .  S
C3542      C3928   1.480       .  S
C3543      C3904   1.484       .  S
H3544      O3545   0.966       .  S
O3545     Eu3564   2.352       .  S
H3546      O3547   0.966       .  S
O3547     Eu3567   2.353       .  S
O3548      C3571   1.293       .  A
O3549      C3572   1.288       .  A
O3550      C3573   1.294       .  A
O3551      C3574   1.291       .  A
O3552      C3575   1.289       .  A
O3552     Eu3567   2.445       .  S
O3553      C3576   1.293       .  A
O3553     Eu3566   2.467       .  S
O3554      C3577   1.291       .  A
O3554     Eu3568   2.457       .  S
O3555      C3578   1.292       .  A
O3556      C3577   1.290       .  A
O3557      C3578   1.291       .  A
O3558      C3573   1.289       .  A
O3558     Eu3564   2.444       .  S
O3559      C3576   1.292       .  A
O3559     Eu3565   2.461       .  S
O3560      C3575   1.292       .  A
O3561      C3574   1.291       .  A
O3562      C3571   1.289       .  A
O3563      C3572   1.294       .  A
O3563     Eu3568   2.469       .  S
Eu3568     O3580   2.350       .  S
C3571      C3997   1.483       .  S
C3572      C4012   1.484       .  S
C3573      C3952   1.481       .  S
C3574      C3937   1.483       .  S
C3575      C3976   1.485       .  S
C3576      C3961   1.491       .  S
C3577      C3913   1.475       .  S
C3578      C3889   1.485       .  S
H3579      O3580   0.966       .  S
H3581      O3582   0.966       .  S
O3583      C3594   1.292       .  A
O3583     Eu3619   2.464       .  S
O3584      C3595   1.294       .  A
O3584     Eu3618   2.467       .  S
O3585      C3596   1.293       .  A
O3585     Eu3591   2.468       .  S
O3586      C3597   1.292       .  A
O3587      C3597   1.289       .  A
O3587     Eu3621   2.449       .  S
O3588      C3596   1.289       .  A
O3588     Eu3620   2.441       .  S
O3589      C3595   1.287       .  A
O3589     Eu3591   2.434       .  S
O3590      C3594   1.288       .  A
O3590     Eu3591   2.438       .  S
Eu3591     O3593   2.345       .  S
Eu3591     O3599   2.356       .  S
O3592     Eu3621   2.353       .  S
O3593     Eu3619   2.349       .  S
O3593     Eu3620   2.351       .  S
C3594      C4024   1.476       .  S
C3595      C3985   1.487       .  S
C3596      C3817   1.483       .  S
C3597      C3793   1.479       .  S
H3598      O3599   0.966       .  S
O3599     Eu3620   2.352       .  S
O3599     Eu3618   2.352       .  S
H3600      O3601   0.966       .  S
O3601     Eu3621   2.351       .  S
O3602      C3625   1.293       .  A
O3602     Eu3618   2.466       .  S
O3603      C3626   1.290       .  A
O3603     Eu3619   2.450       .  S
O3604      C3627   1.291       .  A
O3604     Eu3620   2.459       .  S
O3605      C3628   1.291       .  A
O3605     Eu3621   2.455       .  S
O3606      C3629   1.291       .  A
O3606     Eu3621   2.455       .  S
O3607      C3630   1.292       .  A
O3607     Eu3620   2.458       .  S
O3608      C3631   1.292       .  A
O3608     Eu3622   2.460       .  S
O3609      C3632   1.289       .  A
O3610      C3631   1.288       .  A
O3610     Eu3620   2.442       .  S
O3611      C3632   1.292       .  A
O3611     Eu3621   2.459       .  S
O3612      C3627   1.293       .  A
O3612     Eu3618   2.469       .  S
O3613      C3630   1.287       .  A
O3613     Eu3619   2.434       .  S
O3614      C3629   1.289       .  A
O3615      C3628   1.292       .  A
O3616      C3625   1.291       .  A
O3616     Eu3622   2.455       .  S
O3617      C3626   1.293       .  A
O3617     Eu3622   2.467       .  S
Eu3618     O3624   2.348       .  S
Eu3619     O3634   2.357       .  S
Eu3620     O3634   2.354       .  S
Eu3620     O3624   2.344       .  S
Eu3621     O3623   2.346       .  S
Eu3621     O3636   2.351       .  S
Eu3622     O3634   2.349       .  S
Eu3622     O3624   2.346       .  S
C3625      C4000   1.485       .  S
C3626      C4009   1.485       .  S
C3627      C3865   1.486       .  S
C3628      C3877   1.483       .  S
C3629      C3841   1.483       .  S
C3630      C3853   1.488       .  S
C3631      C3829   1.479       .  S
C3632      C3805   1.484       .  S
H3633      O3634   0.966       .  S
H3635      O3636   0.966       .  S
O3637      C3648   1.290       .  A
O3637     Eu3673   2.450   1_565  S
O3638      C3649   1.294       .  A
O3638     Eu3672   2.473       .  S
O3639      C3650   1.289       .  A
O3639     Eu3645   2.447       .  S
O3640      C3651   1.292       .  A
O3641      C3651   1.290       .  A
O3641     Eu3675   2.448       .  S
O3642      C3650   1.292       .  A
O3642     Eu3674   2.462       .  S
O3643      C3649   1.289       .  A
O3643     Eu3645   2.445       .  S
O3644      C3648   1.291       .  A
O3644     Eu3645   2.457       .  S
Eu3645     O3647   2.344       .  S
Eu3645     O3653   2.351       .  S
O3646     Eu3675   2.356       .  S
O3647     Eu3673   2.346   1_565  S
O3647     Eu3674   2.347       .  S
C3650      C3760   1.478       .  S
C3651      C3748   1.489       .  S
H3652      O3653   0.966       .  S
O3653     Eu3674   2.351       .  S
O3653     Eu3672   2.351       .  S
H3654      O3655   0.966       .  S
O3655     Eu3675   2.352       .  S
O3656      C3679   1.294       .  A
O3656     Eu3672   2.469       .  S
O3657      C3680   1.291       .  A
O3657     Eu3673   2.458       .  S
O3658      C3681   1.292       .  A
O3658     Eu3674   2.458       .  S
O3659      C3682   1.290       .  A
O3659     Eu3675   2.450       .  S
O3660      C3683   1.291       .  A
O3660     Eu3675   2.455       .  S
O3661      C3684   1.292       .  A
O3661     Eu3674   2.461       .  S
O3662      C3685   1.289       .  A
O3662     Eu3676   2.446   1_565  S
O3663      C3686   1.287       .  A
O3664      C3685   1.292       .  A
O3664     Eu3674   2.457       .  S
O3665      C3686   1.292       .  A
O3665     Eu3675   2.460       .  S
O3666      C3681   1.288       .  A
O3666     Eu3672   2.441       .  S
O3667      C3684   1.291       .  A
O3667     Eu3673   2.451   1_565  S
O3668      C3683   1.289       .  A
O3669      C3682   1.292       .  A
O3670      C3679   1.289       .  A
O3670     Eu3676   2.445   1_565  S
O3671      C3680   1.290       .  A
O3671     Eu3676   2.454       .  S
Eu3672     O3678   2.351       .  S
Eu3673     O3688   2.350   1_545  S
Eu3674     O3688   2.359       .  S
Eu3674     O3678   2.350       .  S
Eu3675     O3677   2.349       .  S
Eu3675     O3690   2.347       .  S
Eu3676     O3688   2.351   1_545  S
Eu3676     O3678   2.348   1_545  S
C3681      C3832   1.479       .  S
C3682      C3820   1.483       .  S
C3683      C3796   1.480       .  S
C3684      C3808   1.484       .  S
C3685      C3769   1.479       .  S
C3686      C3781   1.479       .  S
H3687      O3688   0.966       .  S
H3689      O3690   0.966       .  S
O3691      C3702   1.292       .  A
O3691     Eu3727   2.456       .  S
O3692      C3703   1.289       .  A
O3692     Eu3726   2.453       .  S
O3693      C3704   1.292       .  A
O3694      C3705   1.294       .  A
O3694     Eu3699   2.478   1_556  S
O3695      C3705   1.288       .  A
O3695     Eu3729   2.440       .  S
O3696      C3704   1.287       .  A
O3696     Eu3728   2.440       .  S
O3697      C3703   1.290       .  A
O3697     Eu3699   2.447   1_556  S
O3698      C3702   1.290       .  A
O3698     Eu3699   2.450       .  S
Eu3699     O3709   2.347   1_554  S
Eu3699     O3700   2.347   1_554  S
O3700     Eu3729   2.343       .  S
O3700     Eu3726   2.345       .  S
O3701     Eu3728   2.351       .  S
C3704      C3856   1.490       .  S
C3705      C3868   1.484       .  S
H3706      O3707   0.966       .  S
O3707     Eu3728   2.356       .  S
H3708      O3709   0.966       .  S
O3709     Eu3727   2.356   1_556  S
O3709     Eu3729   2.350       .  S
O3710      C3733   1.291       .  A
O3710     Eu3726   2.457       .  S
O3711      C3734   1.292       .  A
O3711     Eu3727   2.461       .  S
O3712      C3735   1.291       .  A
O3712     Eu3728   2.453       .  S
O3713      C3736   1.290       .  A
O3713     Eu3729   2.451       .  S
O3714      C3737   1.288       .  A
O3714     Eu3729   2.440       .  S
O3715      C3738   1.289       .  A
O3715     Eu3728   2.452       .  S
O3716      C3739   1.294       .  A
O3717      C3740   1.293       .  A
O3717     Eu3730   2.468       .  S
O3718      C3739   1.287       .  A
O3718     Eu3728   2.441       .  S
O3719      C3740   1.289       .  A
O3719     Eu3729   2.448       .  S
O3720      C3735   1.291       .  A
O3721      C3738   1.294       .  A
O3722      C3737   1.291       .  A
O3722     Eu3727   2.453   1_556  S
O3723      C3736   1.290       .  A
O3723     Eu3726   2.449       .  S
O3724      C3733   1.289       .  A
O3724     Eu3730   2.443       .  S
O3725      C3734   1.290       .  A
O3725     Eu3730   2.449   1_554  S
Eu3726     O3744   2.349       .  S
Eu3727     O3731   2.357   1_554  S
Eu3728     O3742   2.352       .  S
Eu3728     O3732   2.340       .  S
Eu3729     O3731   2.352       .  S
Eu3729     O3744   2.343       .  S
Eu3730     O3731   2.349       .  S
Eu3730     O3744   2.350       .  S
C3735      C3757   1.478       .  S
C3736      C3772   1.479       .  S
C3737      C3784   1.478       .  S
C3738      C3745   1.490       .  S
C3739      C3844   1.485       .  S
C3740      C3880   1.485       .  S
H3741      O3742   0.966       .  S
H3743      O3744   0.966       .  S
C3745      C3746   1.405       .  A
C3745      C3750   1.418       .  A
C3746      C3747   1.399       .  A
C3746      H3751   1.085       .  S
C3747      C3748   1.415       .  A
C3747      C3754   1.444       .  S
C3748      C3749   1.407       .  A
C3749      C3750   1.403       .  A
C3749      H3752   1.085       .  S
C3750      C3753   1.446       .  S
C3753      N3755   1.158       .  T
C3754      N3756   1.157       .  T
C3757      C3758   1.404       .  A
C3757      C3762   1.413       .  A
C3758      C3759   1.398       .  A
C3758      H3763   1.085       .  S
C3759      C3760   1.412       .  A
C3759      C3766   1.444       .  S
C3760      C3761   1.405       .  A
C3761      C3762   1.401       .  A
C3761      H3764   1.085       .  S
C3762      C3765   1.444       .  S
C3765      N3767   1.157       .  T
C3766      N3768   1.157       .  T
C3769      C3770   1.403       .  A
C3769      C3774   1.414       .  A
C3770      C3771   1.398       .  A
C3770      H3775   1.085       .  S
C3771      C3772   1.414       .  A
C3771      C3778   1.444       .  S
C3772      C3773   1.404       .  A
C3773      C3774   1.399       .  A
C3773      H3776   1.085       .  S
C3774      C3777   1.445       .  S
C3777      N3779   1.157       .  T
C3778      N3780   1.157       .  T
C3781      C3782   1.403       .  A
C3781      C3786   1.416       .  A
C3782      C3783   1.396       .  A
C3782      H3787   1.085       .  S
C3783      C3784   1.414       .  A
C3783      C3790   1.445       .  S
C3784      C3785   1.404       .  A
C3785      C3786   1.399       .  A
C3785      H3788   1.085       .  S
C3786      C3789   1.445       .  S
C3789      N3791   1.157       .  T
C3790      N3792   1.157       .  T
C3793      C3794   1.402       .  A
C3793      C3798   1.414       .  A
C3794      C3795   1.395       .  A
C3794      H3799   1.082       .  S
C3795      C3796   1.414       .  A
C3795      C3802   1.445       .  S
C3796      C3797   1.406       .  A
C3797      C3798   1.401       .  A
C3797      H3800   1.085       .  S
C3798      C3801   1.445       .  S
C3801      N3803   1.157       .  T
C3802      N3804   1.157       .  T
C3805      C3806   1.406       .  A
C3805      C3810   1.416       .  A
C3806      C3807   1.400       .  A
C3806      H3811   1.085       .  S
C3807      C3808   1.414       .  A
C3807      C3814   1.445       .  S
C3808      C3809   1.405       .  A
C3809      C3810   1.399       .  A
C3809      H3812   1.085       .  S
C3810      C3813   1.445       .  S
C3813      N3815   1.157       .  T
C3814      N3816   1.157       .  T
C3817      C3818   1.406       .  A
C3817      C3822   1.414       .  A
C3818      C3819   1.400       .  A
C3818      H3823   1.085       .  S
C3819      C3820   1.415       .  A
C3819      C3826   1.446       .  S
C3820      C3821   1.405       .  A
C3821      C3822   1.400       .  A
C3821      H3824   1.085       .  S
C3822      C3825   1.444       .  S
C3825      N3827   1.157       .  T
C3826      N3828   1.157       .  T
C3829      C3830   1.403       .  A
C3829      C3834   1.416       .  A
C3830      C3831   1.396       .  A
C3830      H3835   1.085       .  S
C3831      C3832   1.414       .  A
C3831      C3838   1.445       .  S
C3832      C3833   1.404       .  A
C3833      C3834   1.399       .  A
C3833      H3836   1.085       .  S
C3834      C3837   1.445       .  S
C3837      N3839   1.157       .  T
C3838      N3840   1.157       .  T
C3841      C3842   1.404       .  A
C3841      C3846   1.414       .  A
C3842      C3843   1.400       .  A
C3842      H3847   1.085       .  S
C3843      C3844   1.418       .  A
C3843      C3850   1.445       .  S
C3844      C3845   1.404       .  A
C3845      C3846   1.399       .  A
C3845      H3848   1.085       .  S
C3846      C3849   1.445       .  S
C3849      N3851   1.157       .  T
C3850      N3852   1.158       .  T
C3853      C3854   1.406       .  A
C3853      C3858   1.418       .  A
C3854      C3855   1.397       .  A
C3854      H3859   1.085       .  S
C3855      C3856   1.419       .  A
C3855      C3862   1.445       .  S
C3856      C3857   1.406       .  A
C3857      C3858   1.397       .  A
C3857      H3860   1.085       .  S
C3858      C3861   1.446       .  S
C3861      N3863   1.158       .  T
C3862      N3864   1.158       .  T
C3865      C3866   1.405       .  A
C3865      C3870   1.415       .  A
C3866      C3867   1.401       .  A
C3866      H3871   1.085       .  S
C3867      C3868   1.415       .  A
C3867      C3874   1.445       .  S
C3868      C3869   1.403       .  A
C3869      C3870   1.402       .  A
C3869      H3872   1.085       .  S
C3870      C3873   1.443       .  S
C3873      N3875   1.157       .  T
C3874      N3876   1.157       .  T
C3877      C3878   1.404       .  A
C3877      C3882   1.413       .  A
C3878      C3879   1.400       .  A
C3878      H3883   1.085       .  S
C3879      C3880   1.416       .  A
C3879      C3886   1.445       .  S
C3880      C3881   1.404       .  A
C3881      C3882   1.401       .  A
C3881      H3884   1.085       .  S
C3882      C3885   1.443       .  S
C3885      N3887   1.157       .  T
C3886      N3888   1.157       .  T
C3889      C3894   1.416       .  A
C3890      C3891   1.397       .  A
C3890      H3895   1.085       .  S
C3891      C3898   1.445       .  S
C3892      C3893   1.403       .  A
C3893      C3894   1.398       .  A
C3893      H3896   1.085       .  S
C3894      C3897   1.444       .  S
C3897      N3899   1.157       .  T
C3898      N3900   1.157       .  T
C3901      C3902   1.404       .  A
C3902      C3903   1.399       .  A
C3902      H3907   1.085       .  S
C3903      C3904   1.414       .  A
C3903      C3910   1.444       .  S
C3905      C3906   1.397       .  A
C3905      H3908   1.085       .  S
C3906      C3909   1.445       .  S
C3909      N3911   1.157       .  T
C3910      N3912   1.157       .  T
C3913      C3914   1.403       .  A
C3914      C3915   1.402       .  A
C3914      H3919   1.085       .  S
C3915      C3916   1.412       .  A
C3915      C3922   1.443       .  S
C3917      C3918   1.397       .  A
C3917      H3920   1.084       .  S
C3918      C3921   1.446       .  S
C3921      N3923   1.158       .  T
C3922      N3924   1.157       .  T
C3925      C3926   1.404       .  A
C3926      C3927   1.399       .  A
C3926      H3931   1.085       .  S
C3927      C3928   1.415       .  A
C3927      C3934   1.444       .  S
C3929      C3930   1.398       .  A
C3929      H3932   1.083       .  S
C3930      C3933   1.445       .  S
C3933      N3935   1.158       .  T
C3934      N3936   1.157       .  T
C3937      C3938   1.406       .  A
C3938      C3939   1.402       .  A
C3938      H3943   1.085       .  S
C3939      C3940   1.415       .  A
C3939      C3946   1.445       .  S
C3941      C3942   1.398       .  A
C3941      H3944   1.085       .  S
C3942      C3945   1.443       .  S
C3945      N3947   1.157       .  T
C3946      N3948   1.157       .  T
C3949      C3954   1.414       .  A
C3950      C3951   1.400       .  A
C3950      H3955   1.085       .  S
C3951      C3958   1.444       .  S
C3952      C3953   1.403       .  A
C3953      C3954   1.398       .  A
C3953      H3956   1.085       .  S
C3954      C3957   1.444       .  S
C3957      N3959   1.157       .  T
C3958      N3960   1.157       .  T
C3961      C3966   1.416       .  A
C3962      C3963   1.402       .  A
C3962      H3967   1.085       .  S
C3963      C3970   1.446       .  S
C3964      C3965   1.407       .  A
C3965      C3966   1.403       .  A
C3965      H3968   1.085       .  S
C3966      C3969   1.445       .  S
C3969      N3971   1.157       .  T
C3970      N3972   1.158       .  T
C3973      C3974   1.407       .  A
C3974      C3975   1.400       .  A
C3974      H3979   1.085       .  S
C3975      C3976   1.415       .  A
C3975      C3982   1.446       .  S
C3977      C3978   1.400       .  A
C3977      H3980   1.085       .  S
C3978      C3981   1.445       .  S
C3981      N3983   1.157       .  T
C3982      N3984   1.158       .  T
C3985      C3986   1.405       .  A
C3986      C3987   1.395       .  A
C3986      H3991   1.085       .  S
C3987      C3988   1.417       .  A
C3987      C3994   1.445       .  S
C3989      C3990   1.400       .  A
C3989      H3992   1.085       .  S
C3990      C3993   1.445       .  S
C3993      N3995   1.157       .  T
C3994      N3996   1.157       .  T
C3997      C4002   1.415       .  A
C3998      C3999   1.397       .  A
C3998      H4003   1.085       .  S
C3999      C4006   1.444       .  S
C4000      C4001   1.405       .  A
C4001      C4002   1.401       .  A
C4001      H4004   1.085       .  S
C4002      C4005   1.445       .  S
C4005      N4007   1.157       .  T
C4006      N4008   1.157       .  T
C4009      C4014   1.416       .  A
C4010      C4011   1.400       .  A
C4010      H4015   1.085       .  S
C4011      C4018   1.446       .  S
C4012      C4013   1.403       .  A
C4013      C4014   1.399       .  A
C4013      H4016   1.085       .  S
C4014      C4017   1.444       .  S
C4017      N4019   1.157       .  T
C4018      N4020   1.158       .  T
C4021      C4026   1.413       .  A
C4022      C4023   1.397       .  A
C4022      H4027   1.085       .  S
C4023      C4030   1.445       .  S
C4024      C4025   1.403       .  A
C4025      C4026   1.399       .  A
C4025      H4028   1.085       .  S
C4026      C4029   1.444       .  S
C4029      N4031   1.157       .  T
C4030      N4032   1.157       .  T
