geometry optimzed in LAMMPS
_audit_creation_date              2020-11-30 
_audit_creation_method            'lammps2cif' 
_symmetry_space_group_name_H-M    'P1' 
_symmetry_Int_Tables_number       1 
_symmetry_cell_setting            triclinic 
loop_ 
_symmetry_equiv_pos_as_xyz 
  x,y,z 
_cell_length_a                    24.18871186 
_cell_length_b                    43.79147694379908 
_cell_length_c                    35.225773740650155 
_cell_angle_alpha                 82.91448414111005 
_cell_angle_beta                  74.95697283689339 
_cell_angle_gamma                 87.4108777341951 
loop_ 
_atom_site_label 
_atom_site_type_symbol 
_atom_site_fract_x 
_atom_site_fract_y 
_atom_site_fract_z 
_atom_site_charge 
O1          O  0.04833500  0.01927632  0.03107402    -0.74000
O2          O  0.93545643  0.45963139  0.04063984    -0.74000
O3          O  0.05021461  0.45871702  0.03195930    -0.74000
O4          O  0.93357465  0.02199719  0.03976473    -0.74100
O5          O  0.94789193  0.02788015  0.97415338    -0.74000
O6          O  0.06433508  0.46519384  0.96637433    -0.74000
O7          O  0.94951175  0.46709104  0.97506933    -0.74000
O8          O  0.06296593  0.02573612  0.96541948    -0.74000
Ni9        Ni  0.99118637  0.48982862  0.03936376     1.25400
Ni10       Ni  0.00603285  0.99620422  0.96739120     1.25400
C11         C  0.07487426  0.03207092  0.99687857     0.88200
C12         C  0.92377402  0.45346562  0.00900125     0.88200
C13         C  0.07639168  0.45151915  0.99757775     0.88200
C14         C  0.92142115  0.03526685  0.00839576     0.88300
O15         O  0.93765967  0.47686102  0.51366387    -0.74000
O16         O  0.04634762  0.03868969  0.51712453    -0.74000
O17         O  0.93817114  0.03814430  0.50847289    -0.74000
O18         O  0.04515580  0.47942084  0.52258769    -0.74100
O19         O  0.08105057  0.47900698  0.45754051    -0.74000
O20         O  0.97374686  0.03766148  0.44344787    -0.74000
O21         O  0.08175409  0.03745231  0.45218505    -0.74000
O22         O  0.97362151  0.47663913  0.44860859    -0.74000
Ni23       Ni  0.98802051  0.50932743  0.51530229     1.25400
Ni24       Ni  0.02976698  0.00642196  0.45085394     1.25400
C25         C  0.93910614  0.46602481  0.48117585     0.88200
C26         C  0.08172201  0.04830110  0.48421980     0.88200
C27         C  0.93794307  0.04812682  0.47278927     0.88200
C28         C  0.08143366  0.46933922  0.49337231     0.88300
O29         O  0.42495545  0.25322638  0.09677086    -0.80400
O30         O  0.47643412  0.24135281  0.91831422    -0.65100
O31         O  0.47108888  0.22445971  0.02812799    -1.11700
C32         C  0.62368139  0.29503696  0.99493765     1.06500
O33         O  0.57046518  0.23443536  0.90222121    -0.78300
O34         O  0.62866596  0.22370589  0.95765427    -0.65900
Ni35       Ni  0.40043393  0.22431670  0.06767586     1.34900
C36         C  0.62111356  0.21189100  0.99332644     0.85200
O37         O  0.41384192  0.20257479  0.97721695    -0.78900
O38         O  0.37050663  0.19500802  0.04237483    -0.89100
C39         C  0.52311181  0.23725341  0.89277219     0.84800
O40         O  0.36272497  0.25745976  0.04365324    -0.67300
O41         O  0.63436651  0.28610122  0.96054107    -0.86600
C42         C  0.37261805  0.27208211  0.00922348     0.85600
C43         C  0.37770392  0.18897410  0.00686098     1.07200
H44         H  0.51255749  0.28254812  0.96761300     0.39000
O45         O  0.52781173  0.26204081  0.97218204    -1.09300
O46         O  0.58517537  0.22258085  0.02201102    -0.65900
Ni47       Ni  0.52647658  0.25450270  0.02697140     1.26300
O48         O  0.41335502  0.26503567  0.98060232    -0.66200
O49         O  0.58197829  0.28521221  0.02356106    -0.78500
C50         C  0.47158559  0.25220589  0.10708795     0.85000
O51         O  0.51899040  0.24721173  0.08275548    -0.65600
Ni52       Ni  0.59918675  0.25994070  0.93358971     1.27400
Ni53       Ni  0.47087866  0.23272120  0.97371392     1.26100
H54         H  0.48782356  0.20418957  0.03165510     0.39500
O55         O  0.42012697  0.26490509  0.59538505    -0.80400
O56         O  0.49011419  0.25565642  0.41285915    -0.65100
O57         O  0.46670310  0.23808345  0.52464770    -1.11700
C58         C  0.62569025  0.30427381  0.50299451     1.06500
O59         O  0.58406982  0.24959916  0.40114810    -0.78300
O60         O  0.63535384  0.23775886  0.46040627    -0.65900
Ni61       Ni  0.39254965  0.24387704  0.55899100     1.34900
C62         C  0.62058881  0.22255948  0.49443769     0.85200
O63         O  0.41919842  0.21788619  0.46825732    -0.78900
O64         O  0.35731417  0.22230394  0.52725049    -0.89100
C65         C  0.53876883  0.25244849  0.38914745     0.84800
O66         O  0.37540364  0.28280527  0.53370651    -0.67300
O67         O  0.63729453  0.29935789  0.46679389    -0.86600
C68         C  0.38602139  0.29298640  0.49730784     0.85600
C69         C  0.37192167  0.21166689  0.49384897     1.07200
H70         H  0.51797202  0.29574364  0.46856773     0.39000
O71         O  0.53255184  0.27497280  0.47219513    -1.09300
O72         O  0.57898296  0.23047049  0.52197555    -0.65900
Ni73       Ni  0.52529895  0.26464688  0.52760120     1.26300
O74         O  0.42090215  0.27989062  0.47049870    -0.66200
O75         O  0.58376965  0.29212124  0.52956193    -0.78500
C76         C  0.46534636  0.25945015  0.60716101     0.85000
O77         O  0.51285032  0.25398268  0.58329461    -0.65600
Ni78       Ni  0.60691005  0.27419783  0.43617293     1.27400
Ni79       Ni  0.47620400  0.24673062  0.46889879     1.26100
H80         H  0.47796921  0.21690781  0.53025250     0.39500
C81         C  0.49647065  0.24887723  0.70990213     0.19200
C82         C  0.52710534  0.22633453  0.72823739    -0.18900
C83         C  0.52144274  0.22405207  0.76899626    -0.11200
C84         C  0.48563230  0.24471511  0.79222604     0.21400
C85         C  0.45474624  0.26715981  0.77393623    -0.20600
C86         C  0.46039361  0.26943839  0.73315775    -0.11400
C87         C  0.48056071  0.24388095  0.83530620    -0.15600
C88         C  0.52415521  0.23463242  0.85127721    -0.29400
C89         C  0.50310181  0.25024076  0.66660015    -0.03700
C90         C  0.46123182  0.26062162  0.64944915    -0.40200
H91         H  0.55492175  0.21014310  0.71103731     0.12600
H92         H  0.54473888  0.20590099  0.78221035     0.12200
H93         H  0.42713158  0.28342872  0.79112133     0.11600
H94         H  0.43724474  0.28765535  0.71993869     0.11900
H95         H  0.44212137  0.25358640  0.85360966     0.14600
H96         H  0.56438607  0.22723797  0.83254213     0.13400
H97         H  0.54187497  0.24043297  0.64880840     0.11100
H98         H  0.42068216  0.26839657  0.66736867     0.13100
C99         C  0.50930512  0.25725869  0.20637877     0.19200
C100        C  0.55979571  0.25969932  0.21834118    -0.18900
C101        C  0.55791041  0.26083816  0.25818872    -0.11200
C102        C  0.50521782  0.25924564  0.28710840     0.21400
C103        C  0.45471471  0.25755557  0.27508428    -0.20600
C104        C  0.45657122  0.25625136  0.23536702    -0.11400
C105        C  0.50079175  0.25958720  0.32993007    -0.15600
C106        C  0.54390169  0.25109101  0.34674565    -0.29400
C107        C  0.51367861  0.25434607  0.16395424    -0.03700
C108        C  0.46866078  0.25785504  0.14796610    -0.40200
H109        H  0.60095259  0.26063784  0.19676268     0.12600
H110        H  0.59775518  0.26321989  0.26598680     0.12200
H111        H  0.41358004  0.25646649  0.29670250     0.11600
H112        H  0.41647522  0.25358984  0.22812620     0.11900
H113        H  0.45984608  0.26634445  0.34852334     0.14600
H114        H  0.58477627  0.24356226  0.32905059     0.13400
H115        H  0.55537110  0.24872638  0.14534413     0.11100
H116        H  0.42699497  0.26444574  0.16541113     0.13100
C117        C  0.28128102  0.36220969  0.49982378     0.19200
C118        C  0.25518370  0.38137132  0.52865224    -0.18900
C119        C  0.21827538  0.40522544  0.52049922    -0.11200
C120        C  0.20566580  0.41008760  0.48335150     0.21400
C121        C  0.23270528  0.39134641  0.45418644    -0.20600
C122        C  0.26990989  0.36751692  0.46230442    -0.11400
C123        C  0.16451214  0.43427566  0.47408214    -0.15600
C124        C  0.12347522  0.44608369  0.50223444    -0.29400
C125        C  0.31701174  0.33594358  0.51104507    -0.03700
C126        C  0.35553450  0.32081407  0.48484394    -0.40200
H127        H  0.26331550  0.37783220  0.55772464     0.12600
H128        H  0.20020256  0.41978243  0.54341802     0.12200
H129        H  0.22391140  0.39466611  0.42531361     0.11600
H130        H  0.28802037  0.35285238  0.43950850     0.11900
H131        H  0.16646681  0.44160082  0.44314132     0.14600
H132        H  0.11896301  0.43805107  0.53323540     0.13400
H133        H  0.31099465  0.32868794  0.54247729     0.11100
H134        H  0.36426132  0.32837479  0.45338749     0.13100
C135        C  0.82370895  0.40330247  0.50824114     0.19200
C136        C  0.76675732  0.40156717  0.53109855    -0.18900
C137        C  0.73042948  0.37892982  0.52671459    -0.11200
C138        C  0.75083976  0.35731956  0.49964851     0.21400
C139        C  0.80840444  0.35838031  0.47804455    -0.20600
C140        C  0.84455857  0.38091031  0.48243888    -0.11400
C141        C  0.71309076  0.33483681  0.49070313    -0.15600
C142        C  0.66241156  0.32547234  0.51488359    -0.29400
C143        C  0.86039256  0.42881628  0.51124352    -0.03700
C144        C  0.90167203  0.44065987  0.48004644    -0.40200
H145        H  0.74980055  0.41841999  0.55136902     0.12600
H146        H  0.68612023  0.37922961  0.54344890     0.12200
H147        H  0.82537633  0.34189095  0.45725035     0.11600
H148        H  0.88878562  0.38077261  0.46543487     0.11900
H149        H  0.72825773  0.32534530  0.46266669     0.14600
H150        H  0.64773902  0.33298974  0.54409946     0.13400
H151        H  0.85143078  0.43902026  0.53883974     0.11100
H152        H  0.90795960  0.43187319  0.45170101     0.13100
C153        C  0.81540645  0.10900925  0.48860038     0.19200
C154        C  0.76855939  0.11441821  0.52036506    -0.18900
C155        C  0.73012758  0.13883038  0.51676194    -0.11200
C156        C  0.73795758  0.15855220  0.48110974     0.21400
C157        C  0.78466520  0.15299715  0.44936281    -0.20600
C158        C  0.82301944  0.12868061  0.45298215    -0.11400
C159        C  0.70019161  0.18562330  0.47538628    -0.17200
C160        C  0.65380635  0.19439955  0.50265012    -0.29400
C161        C  0.85663531  0.08369934  0.49457634    -0.03700
C162        C  0.89627843  0.07226383  0.46503597    -0.40200
H163        H  0.76183478  0.09978082  0.54825847     0.12600
H164        H  0.69508339  0.14210728  0.54213994     0.12200
H165        H  0.79212123  0.16786966  0.42161641     0.11600
H166        H  0.85915514  0.12607675  0.42802766     0.11900
H167        H  0.71214534  0.19952582  0.44680241     0.14600
H168        H  0.64006506  0.18137793  0.53158793     0.13400
H169        H  0.85400987  0.07397289  0.52490248     0.11100
H170        H  0.89866241  0.08045794  0.43436022     0.13100
C171        C  0.16515120  0.11216256  0.51019914     0.19200
C172        C  0.14900792  0.13519937  0.53534224    -0.18900
C173        C  0.18669926  0.15867664  0.53426133    -0.11200
C174        C  0.24166662  0.15955851  0.50824912     0.21400
C175        C  0.25813760  0.13637329  0.48304550    -0.20600
C176        C  0.22022356  0.11290251  0.48402626    -0.11400
C177        C  0.28138904  0.18352702  0.51117147    -0.15600
C178        C  0.33224541  0.19033510  0.48519050    -0.29400
C179        C  0.12406534  0.08733104  0.51291979    -0.03700
C180        C  0.12374070  0.07217924  0.48212076    -0.40200
H181        H  0.10702363  0.13504107  0.55591213     0.12600
H182        H  0.17305419  0.17603434  0.55430346     0.12200
H183        H  0.30061984  0.13557592  0.46346012     0.11600
H184        H  0.23486643  0.09492367  0.46512423     0.11900
H185        H  0.26824385  0.19578111  0.53715817     0.14600
H186        H  0.34603192  0.17955398  0.45812084     0.13400
H187        H  0.09126669  0.08249914  0.54048289     0.11100
H188        H  0.15402472  0.07810126  0.45370555     0.13100
C189        C  0.25678627  0.33648452  0.02761776     0.19200
C190        C  0.24422879  0.34788018  0.99158583    -0.18900
C191        C  0.20580069  0.37269702  0.98987279    -0.11200
C192        C  0.17919584  0.38661593  0.02420708     0.21400
C193        C  0.19224212  0.37517578  0.05991487    -0.20600
C194        C  0.23024339  0.35042878  0.06162626    -0.11400
C195        C  0.13630696  0.41226918  0.02519393    -0.15600
C196        C  0.12093643  0.42695532  0.99350126    -0.29400
C197        C  0.29505888  0.30942121  0.03192044    -0.03700
C198        C  0.33507603  0.29869954  0.00201692    -0.40200
H199        H  0.26271343  0.33728874  0.96490130     0.12600
H200        H  0.19666434  0.38032935  0.96176760     0.12200
H201        H  0.17247738  0.38525610  0.08687449     0.11600
H202        H  0.23883516  0.34207702  0.08982096     0.11900
H203        H  0.11583105  0.41938432  0.05410178     0.14600
H204        H  0.14070128  0.42111754  0.96396416     0.13400
H205        H  0.29125957  0.29838755  0.06185550     0.11100
H206        H  0.34187861  0.31003228  0.97203784     0.13100
C207        C  0.74556915  0.35368051  0.97742117     0.19200
C208        C  0.78407786  0.36687712  0.94288242    -0.18900
C209        C  0.82170444  0.38963051  0.94441843    -0.11200
C210        C  0.82243673  0.39961014  0.98059571     0.21400
C211        C  0.78376876  0.38655593  0.01540185    -0.20600
C212        C  0.74585401  0.36373644  0.01385745    -0.11400
C213        C  0.86384704  0.42383764  0.98011056    -0.15600
C214        C  0.88016293  0.43009948  0.01203541    -0.29400
C215        C  0.70683468  0.32946897  0.97346417    -0.03700
C216        C  0.66137702  0.31823115  0.00205135    -0.40200
H217        H  0.78498031  0.35963277  0.91440430     0.12600
H218        H  0.85078116  0.39931663  0.91713037     0.12200
H219        H  0.78200722  0.39400471  0.04382714     0.11600
H220        H  0.71747621  0.35404937  0.04130840     0.11900
H221        H  0.88361751  0.43636997  0.95151326     0.14600
H222        H  0.86255734  0.41756422  0.04089409     0.13400
H223        H  0.71560013  0.32100042  0.94472180     0.11100
H224        H  0.65034770  0.32644505  0.03089694     0.13100
C225        C  0.72716048  0.14264205  0.97857528     0.19200
C226        C  0.74933017  0.13658837  0.01200597    -0.18900
C227        C  0.78970246  0.11279195  0.01406990    -0.11200
C228        C  0.80862660  0.09452766  0.98273570     0.21400
C229        C  0.78531618  0.10029245  0.94994232    -0.20600
C230        C  0.74535276  0.12403963  0.94783639    -0.11400
C231        C  0.85436826  0.07036349  0.98151401    -0.15600
C232        C  0.87584473  0.05928123  0.01222113    -0.29400
C233        C  0.68872833  0.16937854  0.97281306    -0.03700
C234        C  0.65628559  0.18457252  0.00202645    -0.40200
H235        H  0.73741149  0.15084246  0.03591431     0.12600
H236        H  0.80700695  0.10960913  0.03965999     0.12200
H237        H  0.79887869  0.08669083  0.92536642     0.11600
H238        H  0.72921037  0.12820069  0.92167331     0.11900
H239        H  0.87095026  0.06090304  0.95357092     0.14600
H240        H  0.85895784  0.06701450  0.04111000     0.13400
H241        H  0.68672568  0.17672538  0.94256467     0.11100
H242        H  0.65477797  0.17681230  0.03273338     0.13100
C243        C  0.18133132  0.08316024  0.02406576     0.19200
C244        C  0.20898670  0.10206520  0.98963279    -0.18900
C245        C  0.25089647  0.12266502  0.99072777    -0.11200
C246        C  0.26599588  0.12483468  0.02626935     0.21400
C247        C  0.23854124  0.10585792  0.06043009    -0.20600
C248        C  0.19677424  0.08531376  0.05934548    -0.11400
C249        C  0.30712039  0.14767959  0.03011139    -0.15600
C250        C  0.34156649  0.16511709  0.99971315    -0.29400
C251        C  0.13539351  0.06141459  0.02525296    -0.03700
C252        C  0.12030454  0.05431663  0.99327519    -0.40200
H253        H  0.19797255  0.10173547  0.96189130     0.12600
H254        H  0.26991194  0.13726421  0.96387657     0.12200
H255        H  0.24896320  0.10716020  0.08829857     0.11600
H256        H  0.17612941  0.07117673  0.08636149     0.11900
H257        H  0.30849295  0.15049741  0.06008626     0.14600
H258        H  0.34352867  0.16220983  0.96928734     0.13400
H259        H  0.11324670  0.05029420  0.05421391     0.11100
H260        H  0.14184767  0.06424471  0.96371666     0.13100
O261        O  0.04774969  0.52057210  0.03335797    -0.74000
O262        O  0.93290785  0.96020485  0.03978740    -0.74000
O263        O  0.04737608  0.95763212  0.03101770    -0.74000
O264        O  0.93320141  0.52146371  0.04213887    -0.74100
O265        O  0.94897176  0.52879154  0.97644605    -0.74000
O266        O  0.06284216  0.96392493  0.96532713    -0.74000
O267        O  0.94839740  0.96622645  0.97406235    -0.74000
O268        O  0.06345179  0.52701904  0.96764121    -0.74000
Ni269      Ni  0.99005805  0.98958308  0.03774294     1.25400
Ni270      Ni  0.00707055  0.49725327  0.96905536     1.25400
C271        C  0.07389495  0.53390251  0.99933225     0.88200
C272        C  0.92185746  0.95344038  0.00825847     0.88200
C273        C  0.07389859  0.95019346  0.99683163     0.88200
C274        C  0.92213396  0.53562103  0.01087177     0.88300
O275        O  0.93928237  0.97571941  0.51862088    -0.74000
O276        O  0.04099941  0.54177365  0.51188204    -0.74000
O277        O  0.93331805  0.53918925  0.50380020    -0.74000
O278        O  0.04708179  0.97631864  0.52823007    -0.74100
O279        O  0.08314205  0.97532063  0.46331294    -0.74000
O280        O  0.96740113  0.53898198  0.43860754    -0.74000
O281        O  0.07538140  0.54126440  0.44674605    -0.74000
O282        O  0.97560830  0.97543160  0.45360396    -0.74000
Ni283      Ni  0.99145401  0.00724100  0.52046620     1.25400
Ni284      Ni  0.02557941  0.50895557  0.44554709     1.25400
C285        C  0.94002382  0.96538143  0.48593709     0.88200
C286        C  0.07513980  0.55217148  0.47882550     0.88200
C287        C  0.93197530  0.54911956  0.46834152     0.88200
C288        C  0.08312983  0.96573867  0.49923983     0.88300
O289        O  0.42649624  0.75311380  0.10382863    -0.80400
O290        O  0.47766290  0.74099390  0.92371119    -0.65100
O291        O  0.46828418  0.72492330  0.03433632    -1.11700
C292        C  0.62189169  0.79575282  0.99964417     1.06500
O293        O  0.57053504  0.73199172  0.91140237    -0.78300
O294        O  0.63326617  0.72732089  0.96390852    -0.65900
Ni295      Ni  0.39737313  0.72738130  0.07305010     1.34900
C296        C  0.62274726  0.71290313  0.99843391     0.85200
O297        O  0.41199566  0.70343330  0.98260169    -0.78900
O298        O  0.36192948  0.70143249  0.04633538    -0.89100
C299        C  0.52529105  0.73604442  0.89958664     0.84800
O300        O  0.36758527  0.76327765  0.04880368    -0.67300
O301        O  0.62858923  0.78958101  0.96423692    -0.86600
C302        C  0.37575585  0.77555647  0.01329850     0.85600
C303        C  0.37071495  0.69351601  0.01153655     1.07200
H304        H  0.51129653  0.78244057  0.97492967     0.39000
O305        O  0.52676502  0.76188217  0.97867164    -1.09300
O306        O  0.58226682  0.72042894  0.02685858    -0.65900
Ni307      Ni  0.52639683  0.75350620  0.03309608     1.26300
O308        O  0.41279801  0.76562215  0.98462294    -0.66200
O309        O  0.58499257  0.78283962  0.02945933    -0.78500
C310        C  0.47339517  0.74975322  0.11379055     0.85000
O311        O  0.52012010  0.74498095  0.08864062    -0.65600
Ni312      Ni  0.59723081  0.76073955  0.93936191     1.27400
Ni313      Ni  0.46969998  0.73293014  0.97951611     1.26100
H314        H  0.48282192  0.70422443  0.03868938     0.39500
O315        O  0.41628981  0.75668693  0.60533242    -0.80400
O316        O  0.48960585  0.75001616  0.41996243    -0.65100
O317        O  0.46742377  0.73512244  0.53184042    -1.11700
C318        C  0.61916404  0.80668401  0.50772499     1.06500
O319        O  0.58419777  0.74817952  0.40672854    -0.78300
O320        O  0.63371093  0.73847237  0.46649133    -0.65900
Ni321      Ni  0.39138992  0.74020157  0.56437939     1.34900
C322        C  0.62108941  0.72419806  0.50109991     0.85200
O323        O  0.42399283  0.71131689  0.47619075    -0.78900
O324        O  0.35589091  0.72241227  0.52916107    -0.89100
C325        C  0.53817631  0.74730402  0.39602431     0.84800
O326        O  0.38167221  0.78089590  0.54067014    -0.67300
O327        O  0.63190608  0.80038791  0.47207067    -0.86600
C328        C  0.38806758  0.78938893  0.50404647     0.85600
C329        C  0.37359995  0.70833750  0.49856561     1.07200
H330        H  0.51263677  0.79339446  0.47369959     0.39000
O331        O  0.52934794  0.77322658  0.47804692    -1.09300
O332        O  0.58042525  0.73233881  0.52908063    -0.65900
Ni333      Ni  0.52261692  0.76453484  0.53366978     1.26300
O334        O  0.41771557  0.77401866  0.47728462    -0.66200
O335        O  0.57744778  0.79462689  0.53455223    -0.78500
C336        C  0.46367129  0.75630724  0.61464936     0.85000
O337        O  0.51161902  0.75533273  0.58936544    -0.65600
Ni338      Ni  0.60376320  0.77396591  0.44183632     1.27400
Ni339      Ni  0.47676538  0.74253565  0.47597625     1.26100
H340        H  0.48060976  0.71447852  0.53840447     0.39500
C341        C  0.50234724  0.75166690  0.71460244     0.19200
C342        C  0.54349742  0.73468769  0.73021949    -0.18900
C343        C  0.53946597  0.73179959  0.77079790    -0.11200
C344        C  0.49444782  0.74640998  0.79664948     0.21400
C345        C  0.45382117  0.76376264  0.78081729    -0.20600
C346        C  0.45777413  0.76654238  0.74029136    -0.11400
C347        C  0.48811390  0.74443372  0.84005310    -0.15600
C348        C  0.53000046  0.73454698  0.85737724    -0.29400
C349        C  0.50687593  0.75314221  0.67157017    -0.03700
C350        C  0.46089831  0.75733090  0.65671909    -0.40200
H351        H  0.57825993  0.72305263  0.71105031     0.12600
H352        H  0.57129138  0.71766566  0.78143065     0.12200
H353        H  0.41901675  0.77545973  0.79986418     0.11600
H354        H  0.42619853  0.78068454  0.72927229     0.11900
H355        H  0.44845395  0.75309861  0.85821973     0.14600
H356        H  0.57121872  0.72732243  0.83996063     0.13400
H357        H  0.54843302  0.74861262  0.65198265     0.11100
H358        H  0.41859553  0.75975340  0.67634796     0.13100
C359        C  0.51094190  0.74580635  0.21434671     0.19200
C360        C  0.54695233  0.72671498  0.23274234    -0.18900
C361        C  0.54307805  0.72673968  0.27309154    -0.11200
C362        C  0.50321367  0.74611077  0.29576082     0.21400
C363        C  0.46723477  0.76513098  0.27742999    -0.20600
C364        C  0.47141995  0.76531599  0.23712830    -0.11400
C365        C  0.49792380  0.74728664  0.33845245    -0.15600
C366        C  0.54254642  0.74247171  0.35464854    -0.29400
C367        C  0.51555975  0.74482517  0.17153736    -0.03700
C368        C  0.47168461  0.75273966  0.15528784    -0.40200
H369        H  0.57766127  0.71144227  0.21595133     0.12600
H370        H  0.57066691  0.71128364  0.28651095     0.12200
H371        H  0.43648554  0.78039562  0.29421954     0.11600
H372        H  0.44416141  0.78116808  0.22399168     0.11900
H373        H  0.45714322  0.75490667  0.35637648     0.14600
H374        H  0.58457191  0.73702997  0.33644212     0.13400
H375        H  0.55475312  0.73561430  0.15349376     0.11100
H376        H  0.43091538  0.75983609  0.17358280     0.13100
C377        C  0.28575987  0.85976542  0.50606162     0.19200
C378        C  0.26063341  0.87964730  0.53427224    -0.18900
C379        C  0.22254327  0.90294534  0.52614741    -0.11200
C380        C  0.20801015  0.90660843  0.48962881     0.21400
C381        C  0.23423078  0.88724867  0.46101643    -0.20600
C382        C  0.27237824  0.86392749  0.46913415    -0.11400
C383        C  0.16604289  0.93034795  0.48030358    -0.15600
C384        C  0.12492556  0.94227585  0.50836260    -0.29400
C385        C  0.32219939  0.83381076  0.51744175    -0.03700
C386        C  0.35833917  0.81744424  0.49136957    -0.40200
H387        H  0.27025923  0.87702825  0.56288394     0.12600
H388        H  0.20499016  0.91804539  0.54853165     0.12200
H389        H  0.22401151  0.88966031  0.43260649     0.11600
H390        H  0.28955740  0.84874059  0.44681416     0.11900
H391        H  0.16771932  0.93735907  0.44933774     0.14600
H392        H  0.12083742  0.93450650  0.53940162     0.13400
H393        H  0.31804804  0.82752837  0.54887995     0.11100
H394        H  0.36507454  0.82388826  0.45980191     0.13100
C395        C  0.82031037  0.90505227  0.51079286     0.19200
C396        C  0.76563558  0.90184437  0.53704008    -0.18900
C397        C  0.72684257  0.88069269  0.53214859    -0.11200
C398        C  0.74247206  0.86214299  0.50098998     0.21400
C399        C  0.79763668  0.86484512  0.47554192    -0.20600
C400        C  0.83628839  0.88569312  0.48057270    -0.11400
C401        C  0.70280302  0.84045825  0.49257322    -0.15600
C402        C  0.65497815  0.82904996  0.51858879    -0.29400
C403        C  0.85972959  0.92883394  0.51509472    -0.03700
C404        C  0.90009611  0.94156340  0.48394568    -0.40200
H405        H  0.75240337  0.91629021  0.56074752     0.12600
H406        H  0.68447852  0.87960452  0.55210637     0.12200
H407        H  0.81105223  0.85067107  0.45153924     0.11600
H408        H  0.87874383  0.88636771  0.46072063     0.11900
H409        H  0.71503929  0.83266191  0.46337008     0.14600
H410        H  0.64271751  0.83526515  0.54854080     0.13400
H411        H  0.85385995  0.93693630  0.54383809     0.11100
H412        H  0.90374634  0.93491706  0.45472154     0.13100
C413        C  0.81335317  0.61101647  0.48821979     0.19200
C414        C  0.79652928  0.63054561  0.51806624    -0.18900
C415        C  0.75560620  0.65376469  0.51594263    -0.11200
C416        C  0.73040236  0.65767654  0.48393708     0.21400
C417        C  0.74699878  0.63808934  0.45417611    -0.20600
C418        C  0.78777534  0.61479514  0.45636028    -0.11400
C419        C  0.69015180  0.68333454  0.47895324    -0.17200
C420        C  0.65625821  0.69697033  0.50905242    -0.29400
C421        C  0.85632271  0.58652073  0.49222496    -0.03700
C422        C  0.88917543  0.57282280  0.46179743    -0.40200
H423        H  0.81573648  0.62809461  0.54287259     0.12600
H424        H  0.74503178  0.66905196  0.53876980     0.12200
H425        H  0.72821528  0.64080164  0.42916282     0.11600
H426        H  0.79846923  0.59968712  0.43335602     0.11900
H427        H  0.68820152  0.69123060  0.44882161     0.14600
H428        H  0.65411672  0.68812146  0.53956923     0.13400
H429        H  0.86261260  0.58031553  0.52167594     0.11100
H430        H  0.88630336  0.57966659  0.43170210     0.13100
C431        C  0.15896010  0.61564855  0.50618967     0.19200
C432        C  0.14573545  0.63642041  0.53460283    -0.18900
C433        C  0.18474076  0.65889620  0.53496746    -0.11200
C434        C  0.23835114  0.66099503  0.50722710     0.21400
C435        C  0.25151091  0.64034291  0.47840102    -0.20600
C436        C  0.21234195  0.61788133  0.47799001    -0.11400
C437        C  0.27939757  0.68407251  0.51114611    -0.15600
C438        C  0.33390045  0.68748151  0.48899643    -0.29400
C439        C  0.11721023  0.59120803  0.50804164    -0.03700
C440        C  0.11574292  0.57688982  0.47669275    -0.40200
H441        H  0.10512177  0.63516785  0.55676624     0.12600
H442        H  0.17327469  0.67439114  0.55758666     0.12200
H443        H  0.29208618  0.64087136  0.45645300     0.11600
H444        H  0.22494604  0.60179768  0.45623085     0.11900
H445        H  0.26429363  0.69828473  0.53509737     0.14600
H446        H  0.35098248  0.67408097  0.46459474     0.13400
H447        H  0.08574648  0.58531998  0.53599690     0.11100
H448        H  0.14467348  0.58365512  0.44800191     0.13100
C449        C  0.26195681  0.84069077  0.02916628     0.19200
C450        C  0.23917196  0.85740676  0.06127838    -0.18900
C451        C  0.19795837  0.88038039  0.05922147    -0.11200
C452        C  0.17822241  0.88726427  0.02502814     0.21400
C453        C  0.20088521  0.87052289  0.99261124    -0.20600
C454        C  0.24248557  0.84743108  0.99466564    -0.11400
C455        C  0.13272181  0.91130693  0.02562977    -0.15600
C456        C  0.11821350  0.92556772  0.99344401    -0.29400
C457        C  0.30244447  0.81504918  0.03448988    -0.03700
C458        C  0.33949432  0.80234493  0.00486959    -0.40200
H459        H  0.25300691  0.85249845  0.08832201     0.12600
H460        H  0.18113692  0.89274486  0.08468946     0.12200
H461        H  0.18573469  0.87450026  0.96610293     0.11600
H462        H  0.25777248  0.83434131  0.96978554     0.11900
H463        H  0.11120994  0.91838978  0.05437867     0.14600
H464        H  0.13987009  0.91992795  0.96407889     0.13400
H465        H  0.30189801  0.80638100  0.06486528     0.11100
H466        H  0.34312494  0.81140396  0.97424289     0.13100
C467        C  0.73950874  0.85645795  0.97865108     0.19200
C468        C  0.73511445  0.87078898  0.01292589    -0.18900
C469        C  0.77628860  0.89187397  0.01386297    -0.11200
C470        C  0.82251034  0.89891066  0.98055984     0.21400
C471        C  0.82628539  0.88482650  0.94636826    -0.20600
C472        C  0.78526488  0.86385461  0.94542107    -0.11400
C473        C  0.86632743  0.92172771  0.97933861    -0.15600
C474        C  0.87769625  0.93057226  0.01165346    -0.29400
C475        C  0.69710172  0.83430345  0.97538539    -0.03700
C476        C  0.65962939  0.81900678  0.00622351    -0.40200
H477        H  0.69952404  0.86643120  0.03870057     0.12600
H478        H  0.77076849  0.90308655  0.04030099     0.12200
H479        H  0.86116736  0.89006158  0.92023190     0.11600
H480        H  0.78941398  0.85329960  0.91854814     0.11900
H481        H  0.89148402  0.93107744  0.95026591     0.14600
H482        H  0.85531743  0.92065219  0.04109336     0.13400
H483        H  0.69861596  0.82946494  0.94559215     0.11100
H484        H  0.65759184  0.82267217  0.03643985     0.13100
C485        C  0.74082416  0.64975036  0.98050249     0.19200
C486        C  0.74883449  0.63637076  0.01718459    -0.18900
C487        C  0.78950722  0.61271576  0.01881827    -0.11200
C488        C  0.82293630  0.60199298  0.98377313     0.21400
C489        C  0.81463384  0.61546507  0.94740166    -0.20600
C490        C  0.77422416  0.63896169  0.94578993    -0.11400
C491        C  0.86737481  0.57724961  0.98291182    -0.15600
C492        C  0.87763391  0.56013336  0.01488442    -0.29400
C493        C  0.70053787  0.67583143  0.97624457    -0.03700
C494        C  0.65963028  0.68614482  0.00596047    -0.40200
H495        H  0.72488882  0.64436945  0.04463249     0.12600
H496        H  0.79479135  0.60340382  0.04752757     0.12200
H497        H  0.83971022  0.60783298  0.91991016     0.11600
H498        H  0.76929143  0.64888404  0.91709773     0.11900
H499        H  0.89289889  0.57262511  0.95384982     0.14600
H500        H  0.85341924  0.56374439  0.04452077     0.13400
H501        H  0.70479714  0.68712526  0.94637926     0.11100
H502        H  0.65243130  0.67494021  0.03599806     0.13100
C503        C  0.16764130  0.59206651  0.02759435     0.19200
C504        C  0.19533306  0.61080495  0.99294276    -0.18900
C505        C  0.23449254  0.63297534  0.99438387    -0.11200
C506        C  0.24639340  0.63689079  0.03047520     0.21400
C507        C  0.21786135  0.61868852  0.06496371    -0.20600
C508        C  0.17919077  0.59649802  0.06352004    -0.11400
C509        C  0.28658059  0.66021417  0.03413603    -0.15600
C510        C  0.33071403  0.67156881  0.00457496    -0.29400
C511        C  0.12553413  0.56813134  0.02839390    -0.03700
C512        C  0.11660904  0.55773669  0.99613620    -0.40200
H513        H  0.18654863  0.60893457  0.96478859     0.12600
H514        H  0.25431928  0.64735295  0.96744739     0.12200
H515        H  0.22587982  0.62146858  0.09320367     0.11600
H516        H  0.15825452  0.58265476  0.09070823     0.11900
H517        H  0.28101288  0.66717221  0.06348704     0.14600
H518        H  0.33862301  0.66417446  0.97532350     0.13400
H519        H  0.10107658  0.55816756  0.05736806     0.11100
H520        H  0.14055258  0.56664797  0.96667402     0.13100
loop_ 
_geom_bond_atom_site_label_1 
_geom_bond_atom_site_label_2 
_geom_bond_distance 
_geom_bond_site_symmetry_2 
_ccdc_geom_bond_type 
O1           C11   1.281   1_554  A
O1         Ni269   1.911   1_445  S
O2           C12   1.280       .  A
O2           Ni9   1.919       .  S
O3           C13   1.283   1_554  A
O3           Ni9   1.919   1_455  S
O4           C14   1.281       .  A
O4         Ni269   1.920   1_545  S
O5           C14   1.283   1_556  A
O5          Ni10   1.921   1_645  S
O6           C13   1.281       .  A
O6         Ni270   1.920       .  S
O7           C12   1.282   1_556  A
O7         Ni270   1.916   1_655  S
O8           C11   1.279       .  A
O8          Ni10   1.914   1_545  S
Ni9         O261   1.917   1_655  S
Ni9         O264   1.919       .  S
Ni9        Ni270   2.389   1_654  S
Ni10        O266   1.921       .  S
Ni10        O267   1.908   1_455  S
Ni10       Ni269   2.390   1_456  S
C11         C252   1.472       .  S
C12         C214   1.478       .  S
C13         C196   1.480       .  S
C14         C232   1.481       .  S
O15          C25   1.284       .  A
O15         Ni23   1.929       .  S
O16          C26   1.285       .  A
O16        Ni283   1.928   1_455  S
O17          C27   1.280       .  A
O17        Ni283   1.912       .  S
O18          C28   1.278       .  A
O18         Ni23   1.905   1_455  S
O19          C28   1.283       .  A
O19        Ni284   1.923       .  S
O20          C27   1.282       .  A
O20         Ni24   1.925   1_655  S
O21          C26   1.277       .  A
O21         Ni24   1.905       .  S
O22          C25   1.279       .  A
O22        Ni284   1.910   1_655  S
Ni23        O276   1.928   1_655  S
Ni23        O277   1.902       .  S
Ni23       Ni284   2.390   1_655  S
Ni24        O279   1.924   1_545  S
Ni24        O282   1.905   1_445  S
Ni24       Ni283   2.390   1_455  S
C25         C144   1.475       .  S
C26         C180   1.473       .  S
C27         C162   1.477       .  S
C28         C124   1.470       .  S
O29          C50   1.269       .  A
O29         Ni35   1.926       .  S
O30          C39   1.269       .  A
O30         Ni53   1.912       .  S
O31         Ni35   1.904       .  S
O31         Ni53   1.908   1_554  S
O31         Ni47   1.909       .  S
O31          H54   0.966       .  S
C32          O49   1.274   1_556  A
C32          O41   1.278       .  A
C32         C216   1.480   1_556  S
O33          C39   1.270       .  A
O33         Ni52   1.930       .  S
O34          C36   1.268       .  A
O34         Ni52   1.904       .  S
Ni35         O38   1.915       .  S
Ni35         O40   1.906       .  S
C36          O46   1.273   1_556  A
C36         C234   1.484   1_556  S
O37          C43   1.276   1_556  A
O37         Ni53   1.923       .  S
O38          C43   1.277       .  A
C39          C88   1.474       .  S
O40          C42   1.269       .  A
O41         Ni52   1.927       .  S
C42          O48   1.271   1_554  A
C42         C198   1.483       .  S
C43         C250   1.477   1_554  S
H44          O45   0.966       .  S
O45         Ni53   1.911       .  S
O45         Ni47   1.910   1_556  S
O45         Ni52   1.907       .  S
O46         Ni47   1.937       .  S
Ni47         O51   1.914       .  S
Ni47         O49   1.914       .  S
O48         Ni53   1.931       .  S
C50          O51   1.269       .  A
C50         C108   1.474       .  S
O55          C76   1.270       .  A
O55         Ni61   1.931       .  S
O56          C65   1.267       .  A
O56         Ni79   1.908       .  S
O57         Ni61   1.911       .  S
O57         Ni79   1.909       .  S
O57         Ni73   1.905       .  S
O57          H80   0.966       .  S
C58          O75   1.273       .  A
C58          O67   1.276       .  A
C58         C142   1.480       .  S
O59          C65   1.269       .  A
O59         Ni78   1.930       .  S
O60          C62   1.269       .  A
O60         Ni78   1.902       .  S
Ni61         O64   1.923       .  S
Ni61         O66   1.904       .  S
C62          O72   1.272       .  A
C62         C160   1.481       .  S
O63          C69   1.276       .  A
O63         Ni79   1.918       .  S
O64          C69   1.277       .  A
C65         C106   1.475       .  S
O66          C68   1.268       .  A
O67         Ni78   1.922       .  S
C68          O74   1.268       .  A
C68         C126   1.475       .  S
C69         C178   1.480       .  S
H70          O71   0.966       .  S
O71         Ni79   1.916       .  S
O71         Ni73   1.912       .  S
O71         Ni78   1.915       .  S
O72         Ni73   1.931       .  S
Ni73         O77   1.907       .  S
Ni73         O75   1.918       .  S
O74         Ni79   1.925       .  S
C76          O77   1.268       .  A
C76          C90   1.474       .  S
C81          C89   1.486       .  S
C81          C82   1.402       .  A
C81          C86   1.408       .  A
C82          C83   1.398       .  A
C82          H91   1.083       .  S
C83          C84   1.408       .  A
C83          H92   1.082       .  S
C84          C87   1.486       .  S
C84          C85   1.402       .  A
C85          C86   1.399       .  A
C85          H93   1.083       .  S
C86          H94   1.082       .  S
C87          H95   1.087       .  S
C87          C88   1.344       .  D
C88          H96   1.085       .  S
C89          H97   1.087       .  S
C89          C90   1.344       .  D
C90          H98   1.085       .  S
C99         C107   1.491       .  S
C99         C100   1.404       .  A
C99         C104   1.411       .  A
C100        C101   1.400       .  A
C100        H109   1.083       .  S
C101        C102   1.408       .  A
C101        H110   1.081       .  S
C102        C105   1.486       .  S
C102        C103   1.401       .  A
C103        C104   1.396       .  A
C103        H111   1.084       .  S
C104        H112   1.079       .  S
C105        H113   1.087       .  S
C105        C106   1.345       .  D
C106        H114   1.084       .  S
C107        H115   1.087       .  S
C107        C108   1.345       .  D
C108        H116   1.083       .  S
C117        C125   1.484       .  S
C117        C118   1.401       .  A
C117        C122   1.408       .  A
C118        C119   1.395       .  A
C118        H127   1.084       .  S
C119        C120   1.408       .  A
C119        H128   1.081       .  S
C120        C123   1.486       .  S
C120        C121   1.403       .  A
C121        C122   1.398       .  A
C121        H129   1.083       .  S
C122        H130   1.081       .  S
C123        H131   1.087       .  S
C123        C124   1.344       .  D
C124        H132   1.084       .  S
C125        H133   1.087       .  S
C125        C126   1.345       .  D
C126        H134   1.085       .  S
C135        C143   1.488       .  S
C135        C136   1.404       .  A
C135        C140   1.407       .  A
C136        C137   1.402       .  A
C136        H145   1.083       .  S
C137        C138   1.409       .  A
C137        H146   1.081       .  S
C138        C141   1.486       .  S
C138        C139   1.403       .  A
C139        C140   1.396       .  A
C139        H147   1.084       .  S
C140        H148   1.082       .  S
C141        H149   1.087       .  S
C141        C142   1.347       .  D
C142        H150   1.085       .  S
C143        H151   1.087       .  S
C143        C144   1.345       .  D
C144        H152   1.086       .  S
C153        C161   1.490       .  S
C153        C154   1.405       .  A
C153        C158   1.406       .  A
C154        C155   1.400       .  A
C154        H163   1.083       .  S
C155        C156   1.408       .  A
C155        H164   1.080       .  S
C156        C159   1.490       .  S
C156        C157   1.405       .  A
C157        C158   1.396       .  A
C157        H165   1.084       .  S
C158        H166   1.080       .  S
C159        H167   1.087       .  S
C159        C160   1.350       .  D
C160        H168   1.083       .  S
C161        H169   1.087       .  S
C161        C162   1.349       .  D
C162        H170   1.083       .  S
C171        C179   1.484       .  S
C171        C172   1.400       .  A
C171        C176   1.409       .  A
C172        C173   1.395       .  A
C172        H181   1.083       .  S
C173        C174   1.404       .  A
C173        H182   1.083       .  S
C174        C177   1.485       .  S
C174        C175   1.407       .  A
C175        C176   1.400       .  A
C175        H183   1.081       .  S
C176        H184   1.082       .  S
C177        H185   1.087       .  S
C177        C178   1.350       .  D
C178        H186   1.084       .  S
C179        H187   1.087       .  S
C179        C180   1.342       .  D
C180        H188   1.085       .  S
C189        C197   1.488       .  S
C189        C190   1.408   1_554  A
C189        C194   1.402       .  A
C190        C191   1.404       .  A
C190        H199   1.081       .  S
C191        C192   1.411   1_556  A
C191        H200   1.080       .  S
C192        C195   1.492       .  S
C192        C193   1.403       .  A
C193        C194   1.395       .  A
C193        H201   1.084       .  S
C194        H202   1.084       .  S
C195        H203   1.087       .  S
C195        C196   1.347   1_554  D
C196        H204   1.083       .  S
C197        H205   1.087       .  S
C197        C198   1.349       .  D
C198        H206   1.085   1_554  S
C207        C215   1.488       .  S
C207        C208   1.403       .  A
C207        C212   1.409   1_556  A
C208        C209   1.395       .  A
C208        H217   1.084       .  S
C209        C210   1.402       .  A
C209        H218   1.084       .  S
C210        C213   1.487       .  S
C210        C211   1.409   1_556  A
C211        C212   1.402       .  A
C211        H219   1.081       .  S
C212        H220   1.080       .  S
C213        H221   1.087       .  S
C213        C214   1.346   1_556  D
C214        H222   1.084       .  S
C215        H223   1.087       .  S
C215        C216   1.348   1_556  D
C216        H224   1.083       .  S
C225        C233   1.489       .  S
C225        C226   1.408   1_556  A
C225        C230   1.403       .  A
C226        C227   1.404       .  A
C226        H235   1.081       .  S
C227        C228   1.411   1_554  A
C227        H236   1.080       .  S
C228        C231   1.492       .  S
C228        C229   1.403       .  A
C229        C230   1.396       .  A
C229        H237   1.084       .  S
C230        H238   1.084       .  S
C231        H239   1.087       .  S
C231        C232   1.347   1_556  D
C232        H240   1.083       .  S
C233        H241   1.087       .  S
C233        C234   1.349   1_556  D
C234        H242   1.085       .  S
C243        C251   1.485       .  S
C243        C244   1.409   1_554  A
C243        C248   1.402       .  A
C244        C245   1.398       .  A
C244        H253   1.079       .  S
C245        C246   1.407   1_556  A
C245        H254   1.080       .  S
C246        C249   1.484       .  S
C246        C247   1.403       .  A
C247        C248   1.394       .  A
C247        H255   1.084       .  S
C248        H256   1.084       .  S
C249        H257   1.087       .  S
C249        C250   1.348   1_554  D
C250        H258   1.083       .  S
C251        H259   1.087       .  S
C251        C252   1.345   1_554  D
C252        H260   1.083       .  S
O261        C271   1.282   1_554  A
O262        C272   1.279       .  A
O262       Ni269   1.912       .  S
O263        C273   1.282   1_554  A
O263       Ni269   1.916   1_455  S
O264        C274   1.280       .  A
O265        C274   1.282   1_556  A
O265       Ni270   1.917   1_655  S
O266        C273   1.280       .  A
O267        C272   1.281   1_556  A
O268        C271   1.280       .  A
O268       Ni270   1.916       .  S
C271        C512   1.476       .  S
C272        C474   1.469       .  S
C273        C456   1.479       .  S
C274        C492   1.478       .  S
O275        C285   1.284       .  A
O275       Ni283   1.930   1_565  S
O276        C286   1.284       .  A
O277        C287   1.279       .  A
O278        C288   1.279       .  A
O278       Ni283   1.912   1_465  S
O279        C288   1.283       .  A
O280        C287   1.282       .  A
O280       Ni284   1.924   1_655  S
O281        C286   1.279       .  A
O281       Ni284   1.910       .  S
O282        C285   1.278       .  A
C285        C404   1.473       .  S
C286        C440   1.476       .  S
C287        C422   1.473       .  S
C288        C384   1.475       .  S
O289        C310   1.269       .  A
O289       Ni295   1.926       .  S
O290        C299   1.269       .  A
O290       Ni313   1.914       .  S
O291       Ni295   1.902       .  S
O291       Ni313   1.911   1_554  S
O291       Ni307   1.913       .  S
O291        H314   0.966       .  S
C292        O309   1.277   1_556  A
C292        O301   1.276       .  A
C292        C476   1.475   1_556  S
O293        C299   1.266       .  A
O293       Ni312   1.919       .  S
O294        C296   1.268       .  A
O294       Ni312   1.901       .  S
Ni295       O298   1.919       .  S
Ni295       O300   1.899       .  S
C296        O306   1.270   1_556  A
C296        C494   1.480   1_556  S
O297        C303   1.275   1_556  A
O297       Ni313   1.918       .  S
O298        C303   1.277       .  A
C299        C348   1.471       .  S
O300        C302   1.268       .  A
O301       Ni312   1.909       .  S
C302        O308   1.271   1_554  A
C302        C458   1.480       .  S
C303        C510   1.478       .  S
H304        O305   0.966       .  S
O305       Ni313   1.908       .  S
O305       Ni307   1.905   1_556  S
O305       Ni312   1.900       .  S
O306       Ni307   1.929       .  S
Ni307       O311   1.913       .  S
Ni307       O309   1.925       .  S
O308       Ni313   1.932       .  S
C310        O311   1.269       .  A
C310        C368   1.473       .  S
O315        C336   1.270       .  A
O315       Ni321   1.927       .  S
O316        C325   1.266       .  A
O316       Ni339   1.905       .  S
O317       Ni321   1.918       .  S
O317       Ni339   1.910       .  S
O317       Ni333   1.915       .  S
O317        H340   0.966       .  S
C318        O335   1.273       .  A
C318        O327   1.275       .  A
C318        C402   1.482       .  S
O319        C325   1.268       .  A
O319       Ni338   1.930       .  S
O320        C322   1.267       .  A
O320       Ni338   1.894       .  S
Ni321       O324   1.933       .  S
Ni321       O326   1.904       .  S
C322        O332   1.272       .  A
C322        C420   1.474       .  S
O323        C329   1.271       .  A
O323       Ni339   1.910       .  S
O324        C329   1.275       .  A
C325        C366   1.475       .  S
O326        C328   1.269       .  A
O327       Ni338   1.920       .  S
C328        O334   1.272       .  A
C328        C386   1.476       .  S
C329        C438   1.481       .  S
H330        O331   0.966       .  S
O331       Ni339   1.912       .  S
O331       Ni333   1.915       .  S
O331       Ni338   1.916       .  S
O332       Ni333   1.931       .  S
Ni333       O337   1.904       .  S
Ni333       O335   1.920       .  S
O334       Ni339   1.936       .  S
C336        O337   1.268       .  A
C336        C350   1.472       .  S
C341        C349   1.485       .  S
C341        C342   1.401       .  A
C341        C346   1.408       .  A
C342        C343   1.397       .  A
C342        H351   1.084       .  S
C343        C344   1.411       .  A
C343        H352   1.080       .  S
C344        C347   1.488       .  S
C344        C345   1.402       .  A
C345        C346   1.396       .  A
C345        H353   1.083       .  S
C346        H354   1.081       .  S
C347        H355   1.087       .  S
C347        C348   1.343       .  D
C348        H356   1.083       .  S
C349        H357   1.087       .  S
C349        C350   1.343       .  D
C350        H358   1.085       .  S
C359        C367   1.489       .  S
C359        C360   1.404       .  A
C359        C364   1.409       .  A
C360        C361   1.400       .  A
C360        H369   1.083       .  S
C361        C362   1.407       .  A
C361        H370   1.082       .  S
C362        C365   1.483       .  S
C362        C363   1.401       .  A
C363        C364   1.396       .  A
C363        H371   1.084       .  S
C364        H372   1.081       .  S
C365        H373   1.087       .  S
C365        C366   1.343       .  D
C366        H374   1.086       .  S
C367        H375   1.087       .  S
C367        C368   1.344       .  D
C368        H376   1.085       .  S
C377        C385   1.487       .  S
C377        C378   1.403       .  A
C377        C382   1.409       .  A
C378        C379   1.397       .  A
C378        H387   1.084       .  S
C379        C380   1.408       .  A
C379        H388   1.081       .  S
C380        C383   1.487       .  S
C380        C381   1.403       .  A
C381        C382   1.399       .  A
C381        H389   1.083       .  S
C382        H390   1.081       .  S
C383        H391   1.087       .  S
C383        C384   1.345       .  D
C384        H392   1.085       .  S
C385        H393   1.087       .  S
C385        C386   1.346       .  D
C386        H394   1.084       .  S
C395        C403   1.490       .  S
C395        C396   1.405       .  A
C395        C400   1.407       .  A
C396        C397   1.404       .  A
C396        H405   1.083       .  S
C397        C398   1.409       .  A
C397        H406   1.081       .  S
C398        C401   1.487       .  S
C398        C399   1.402       .  A
C399        C400   1.394       .  A
C399        H407   1.084       .  S
C400        H408   1.081       .  S
C401        H409   1.087       .  S
C401        C402   1.348       .  D
C402        H410   1.085       .  S
C403        H411   1.087       .  S
C403        C404   1.345       .  D
C404        H412   1.085       .  S
C413        C421   1.480       .  S
C413        C414   1.404       .  A
C413        C418   1.405       .  A
C414        C415   1.396       .  A
C414        H423   1.084       .  S
C415        C416   1.404       .  A
C415        H424   1.082       .  S
C416        C419   1.477       .  S
C416        C417   1.403       .  A
C417        C418   1.396       .  A
C417        H425   1.084       .  S
C418        H426   1.081       .  S
C419        H427   1.087       .  S
C419        C420   1.347       .  D
C420        H428   1.086       .  S
C421        H429   1.087       .  S
C421        C422   1.347       .  D
C422        H430   1.085       .  S
C431        C439   1.489       .  S
C431        C432   1.401       .  A
C431        C436   1.409       .  A
C432        C433   1.397       .  A
C432        H441   1.083       .  S
C433        C434   1.406       .  A
C433        H442   1.083       .  S
C434        C437   1.491       .  S
C434        C435   1.408       .  A
C435        C436   1.400       .  A
C435        H443   1.079       .  S
C436        H444   1.081       .  S
C437        H445   1.087       .  S
C437        C438   1.351       .  D
C438        H446   1.083       .  S
C439        H447   1.087       .  S
C439        C440   1.344       .  D
C440        H448   1.085       .  S
C449        C457   1.483       .  S
C449        C450   1.401       .  A
C449        C454   1.408   1_554  A
C450        C451   1.393       .  A
C450        H459   1.084       .  S
C451        C452   1.402       .  A
C451        H460   1.084       .  S
C452        C455   1.486       .  S
C452        C453   1.410   1_554  A
C453        C454   1.403       .  A
C453        H461   1.081       .  S
C454        H462   1.082       .  S
C455        H463   1.087       .  S
C455        C456   1.346   1_554  D
C456        H464   1.084       .  S
C457        H465   1.087       .  S
C457        C458   1.347       .  D
C458        H466   1.085   1_554  S
C467        C475   1.478       .  S
C467        C468   1.406   1_556  A
C467        C472   1.402       .  A
C468        C469   1.398       .  A
C468        H477   1.081       .  S
C469        C470   1.408   1_554  A
C469        H478   1.081       .  S
C470        C473   1.478       .  S
C470        C471   1.400       .  A
C471        C472   1.391       .  A
C471        H479   1.084       .  S
C472        H480   1.084       .  S
C473        H481   1.087       .  S
C473        C474   1.342   1_556  D
C474        H482   1.084       .  S
C475        H483   1.087       .  S
C475        C476   1.347   1_556  D
C476        H484   1.084       .  S
C485        C493   1.486       .  S
C485        C486   1.408   1_556  A
C485        C490   1.402       .  A
C486        C487   1.402       .  A
C486        H495   1.081       .  S
C487        C488   1.410   1_554  A
C487        H496   1.080       .  S
C488        C491   1.489       .  S
C488        C489   1.402       .  A
C489        C490   1.393       .  A
C489        H497   1.084       .  S
C490        H498   1.084       .  S
C491        H499   1.087       .  S
C491        C492   1.346   1_556  D
C492        H500   1.083       .  S
C493        H501   1.087       .  S
C493        C494   1.348   1_556  D
C494        H502   1.084       .  S
C503        C511   1.487       .  S
C503        C504   1.411   1_554  A
C503        C508   1.402       .  A
C504        C505   1.401       .  A
C504        H513   1.080       .  S
C505        C506   1.406   1_556  A
C505        H514   1.082       .  S
C506        C509   1.481       .  S
C506        C507   1.401       .  A
C507        C508   1.393       .  A
C507        H515   1.084       .  S
C508        H516   1.083       .  S
C509        H517   1.087       .  S
C509        C510   1.347       .  D
C510        H518   1.085   1_554  S
C511        H519   1.087       .  S
C511        C512   1.345   1_554  D
C512        H520   1.083       .  S
