geometry optimzed in LAMMPS
_audit_creation_date              2020-11-30 
_audit_creation_method            'lammps2cif' 
_symmetry_space_group_name_H-M    'P1' 
_symmetry_Int_Tables_number       1 
_symmetry_cell_setting            triclinic 
loop_ 
_symmetry_equiv_pos_as_xyz 
  x,y,z 
_cell_length_a                    45.35645781 
_cell_length_b                    27.186251715323515 
_cell_length_c                    36.284845216182966 
_cell_angle_alpha                 89.97455304095858 
_cell_angle_beta                  89.98553141555567 
_cell_angle_gamma                 89.14906822102692 
loop_ 
_atom_site_label 
_atom_site_type_symbol 
_atom_site_fract_x 
_atom_site_fract_y 
_atom_site_fract_z 
_atom_site_charge 
O1          O  0.62478142  0.26798831  0.37440743    -0.76900
C2          C  0.54920359  0.36648234  0.36760948     0.84200
O3          O  0.61124965  0.32366367  0.24583901    -0.78000
O4          O  0.59254560  0.47966384  0.30745438    -0.79500
O5          O  0.66873728  0.42890366  0.38885654    -0.79300
O6          O  0.66736046  0.30596157  0.38479427    -0.77900
Zn7        Zn  0.60302420  0.31098982  0.33707564     1.55700
O8          O  0.62449441  0.46592301  0.38802064    -0.79300
Cd9        Cd  0.66389711  0.36932988  0.35358549     1.59700
Cd10       Cd  0.63107640  0.38076707  0.27410436     1.59600
O11         O  0.69816996  0.36994842  0.31572873    -0.79300
O12         O  0.62482691  0.37141073  0.32814838    -1.89800
Cd13       Cd  0.60188858  0.42881297  0.34805341     1.59900
O14         O  0.67597529  0.37909467  0.26112342    -0.79200
O15         O  0.56222851  0.40745099  0.36922041    -0.77900
C16         C  0.60014643  0.28300908  0.25608061     0.84700
C17         C  0.64986350  0.27045566  0.39014547     0.84300
O18         O  0.56184028  0.32751612  0.35550527    -0.76800
C19         C  0.65082933  0.46242342  0.39968615     0.85100
O20         O  0.59718331  0.27199811  0.29001910    -0.76900
C21         C  0.69915736  0.37431558  0.28078832     0.85300
C22         C  0.59858174  0.48201796  0.27328802     0.85600
O23         O  0.61296053  0.44781206  0.25671313    -0.79400
C24         C  0.58077120  0.13030565  0.14110920     0.88100
C25         C  0.59289421  0.08442030  0.16115042    -0.52100
C26         C  0.58193443  0.07740763  0.19567116     0.11100
C27         C  0.55961954  0.11791911  0.20751431     0.22000
C28         C  0.54708263  0.12512250  0.14221646    -0.52800
C29         C  0.53596428  0.11843023  0.17696108     0.11200
C30         C  0.58749059  0.17240875  0.16804698    -0.52400
C31         C  0.57619673  0.16665822  0.20265843     0.11700
H32         H  0.60906642  0.05940236  0.14898370     0.16200
H33         H  0.55021648  0.11330227  0.23547156     0.02000
H34         H  0.53345120  0.12538673  0.11762299     0.16500
H35         H  0.60195879  0.20226985  0.16151550     0.16300
C36         C  0.72275267  0.12378996  0.49181033     0.88100
C37         C  0.71407314  0.07687335  0.47156361    -0.52100
C38         C  0.68478409  0.07534285  0.46332083     0.11100
C39         C  0.66684649  0.12090771  0.47598831     0.22000
C40         C  0.71231121  0.16627613  0.46710979    -0.52800
C41         C  0.68303981  0.16458126  0.45872825     0.11200
C42         C  0.68438530  0.13248447  0.02769718    -0.52400
C43         C  0.65614215  0.13065988  0.01481590     0.11700
H44         H  0.72964394  0.04777898  0.46412433     0.16200
H45         H  0.64317423  0.11991309  0.46837557     0.02000
H46         H  0.72673458  0.19484116  0.45698318     0.16500
H47         H  0.68962910  0.13538288  0.05683247     0.16300
O48         O  0.87713466  0.22228892  0.12328580    -0.76900
C49         C  0.94880209  0.11570341  0.10521261     0.84200
O50         O  0.89217191  0.19710298  0.50112201    -0.78000
O51         O  0.89919879  0.01615930  0.03641419    -0.79500
O52         O  0.83251030  0.06220246  0.13840949    -0.79300
O53         O  0.83489061  0.18595789  0.13801753    -0.77900
Zn54       Zn  0.89538503  0.17932519  0.08307025     1.55700
O55         O  0.87239142  0.01709579  0.12361872    -0.79300
Cd56       Cd  0.83464505  0.12404525  0.10485408     1.59700
Cd57       Cd  0.85889270  0.12223960  0.02076193     1.59600
O58         O  0.79663727  0.12766912  0.07266782    -0.79300
O59         O  0.87100625  0.12179910  0.07352198    -1.89800
Cd60       Cd  0.89354374  0.05886567  0.08391849     1.59900
O61         O  0.81354863  0.12559085  0.01488792    -0.79200
O62         O  0.93518904  0.07515751  0.10318160    -0.77900
C63         C  0.89134351  0.21813544  0.00426257     0.84700
C64         C  0.85322368  0.22063868  0.14171719     0.84300
O65         O  0.93636742  0.15696270  0.09793635    -0.76800
C66         C  0.84884239  0.02396767  0.14219481     0.85100
O67         O  0.90013267  0.22203360  0.03748032    -0.76900
C68         C  0.79242429  0.12791930  0.03793172     0.85300
C69         C  0.89026423  0.02287415  0.00341835     0.85600
O70         O  0.89372461  0.07411835  0.49361749    -0.79400
C71         C  0.91654142  0.37952258  0.38534953     0.88100
C72         C  0.91280322  0.42086134  0.41383303    -0.52100
C73         C  0.92489273  0.41113553  0.44753810     0.11100
C74         C  0.94186837  0.36184198  0.44885094     0.22000
C75         C  0.95031622  0.37313564  0.38262760    -0.52800
C76         C  0.96355429  0.36401777  0.41607942     0.11200
C77         C  0.90595325  0.33277676  0.40466155    -0.52400
C78         C  0.91896150  0.32325099  0.43774540     0.11700
H79         H  0.90265502  0.45605635  0.40716580     0.16200
H80         H  0.95296891  0.35492193  0.47561567     0.02000
H81         H  0.96259763  0.37605227  0.35706432     0.16500
H82         H  0.88909195  0.30932845  0.39311650     0.16300
C83         C  0.78370499  0.37504174  0.23970107     0.88100
C84         C  0.79124032  0.41873938  0.21490529    -0.52100
C85         C  0.82029076  0.41995989  0.20522877     0.11100
C86         C  0.83920198  0.37755269  0.22114413     0.22000
C87         C  0.79427343  0.32932558  0.21850436    -0.52800
C88         C  0.82333268  0.33071221  0.20874575     0.11200
C89         C  0.80469218  0.37884603  0.27251836    -0.52400
C90         C  0.83393379  0.38052295  0.26307410     0.11700
H91         H  0.77515309  0.44622332  0.20592077     0.16200
H92         H  0.86275722  0.37886893  0.21285315     0.02000
H93         H  0.78000703  0.29902714  0.21135975     0.16500
H94         H  0.79692150  0.37983523  0.30082852     0.16300
O95         O  0.43570932  0.16652684  0.18208849    -0.76900
C96         C  0.35217101  0.21857783  0.13999024     0.84200
O97         O  0.37289079  0.18030748  0.28948533    -0.78000
O98         O  0.29716946  0.12369531  0.20755741    -0.79500
O99         O  0.37944633  0.01905596  0.16018771    -0.79300
O100        O  0.44072621  0.08486926  0.18411730    -0.77900
Zn101      Zn  0.39435548  0.18253399  0.20013556     1.55700
O102        O  0.33679063  0.05738661  0.14637405    -0.79300
Cd103      Cd  0.39854720  0.06352597  0.20018753     1.59700
Cd104      Cd  0.35795023  0.12086669  0.26113755     1.59600
O105        O  0.40368635  0.02160327  0.24786365    -0.79300
O106        O  0.37225426  0.12265776  0.20923131    -1.89800
Cd107      Cd  0.33633521  0.12117286  0.17721968     1.59900
O108        O  0.37415203  0.06008352  0.28806595    -0.79200
O109        O  0.33580737  0.18100880  0.14192989    -0.77900
C110        C  0.38844823  0.21672532  0.28021566     0.84700
C111        C  0.45121980  0.12744408  0.17810027     0.84300
O112        O  0.37444265  0.22420869  0.16086221    -0.76800
C113        C  0.35505961  0.02169096  0.14267322     0.85100
O114        O  0.39791480  0.22236806  0.24735433    -0.76900
C115        C  0.39211025  0.02548945  0.27979623     0.85300
C116        C  0.29196013  0.12344231  0.24207591     0.85600
O117        O  0.31251887  0.12176880  0.26586517    -0.79400
C118        C  0.41947912  0.37029453  0.39193499     0.88100
C119        C  0.40719061  0.32966021  0.36679616    -0.52100
C120        C  0.42094747  0.32583296  0.33326449     0.11100
C121        C  0.44517045  0.36362470  0.32762233     0.22000
C122        C  0.45264099  0.35963728  0.39418813    -0.52800
C123        C  0.46610450  0.35631181  0.36055514     0.11200
C124        C  0.41656233  0.41696506  0.36804351    -0.52400
C125        C  0.42948999  0.41321769  0.33406170     0.11700
H126        H  0.38867656  0.30729447  0.37477477     0.16200
H127        H  0.45623314  0.36086984  0.30034508     0.02000
H128        H  0.46430337  0.35484083  0.42010188     0.16500
H129        H  0.40414602  0.44925225  0.37639043     0.16300
C130        C  0.29065435  0.37705655  0.03589627     0.88100
C131        C  0.29823009  0.32961201  0.05694355    -0.52100
C132        C  0.32671165  0.32747119  0.06905117     0.11100
C133        C  0.34508725  0.37255643  0.05877394     0.22000
C134        C  0.29866149  0.41893192  0.06228589    -0.52800
C135        C  0.32723106  0.41645122  0.07418853     0.11200
C136        C  0.31331840  0.37977015  0.00487093    -0.52400
C137        C  0.34184128  0.37753334  0.01674627     0.11700
H138        H  0.28235619  0.30104656  0.06264784     0.16200
H139        H  0.36830570  0.37079020  0.06852799     0.02000
H140        H  0.28329546  0.44789179  0.07059726     0.16500
H141        H  0.30849645  0.38143931  0.47113831     0.16300
O142        O  0.12188795  0.49188902  0.40429299    -0.76900
C143        C  0.04663186  0.38877585  0.42024471     0.84200
O144        O  0.12441099  0.44869666  0.03442268    -0.78000
O145        O  0.09815135  0.28867988  0.49401137    -0.79500
O146        O  0.16114078  0.32641012  0.38756641    -0.79300
O147        O  0.16307094  0.45058165  0.38899441    -0.77900
Zn148      Zn  0.10091531  0.44871169  0.44194923     1.55700
O149        O  0.12128115  0.28473167  0.40505299    -0.79300
Cd150      Cd  0.16139911  0.38787442  0.42098683     1.59700
Cd151      Cd  0.13976676  0.38643145  0.00918604     1.59600
O152        O  0.20018169  0.38511715  0.45185603    -0.79300
O153        O  0.12512702  0.38994975  0.45244194    -1.89800
Cd154      Cd  0.10142343  0.32892314  0.44518293     1.59900
O155        O  0.18476008  0.38369036  0.01667644    -0.79200
O156        O  0.05875528  0.34759371  0.42865041    -0.77900
C157        C  0.10753857  0.48403118  0.02461721     0.84700
C158        C  0.14597588  0.48796784  0.38623771     0.84300
O159        O  0.06054640  0.42916650  0.42234480    -0.76800
C160        C  0.14434681  0.28940694  0.38527546     0.85100
O161        O  0.09436196  0.48966752  0.48889381    -0.76900
C162        C  0.20483703  0.38669364  0.48644479     0.85300
C163        C  0.10768464  0.29087618  0.02770552     0.85600
O164        O  0.12248478  0.32808435  0.03724140    -0.79400
C165        C  0.07770805  0.13386598  0.13757354     0.88100
C166        C  0.08693801  0.17879429  0.11449243    -0.52100
C167        C  0.07458705  0.18096610  0.08005688     0.11100
C168        C  0.05425884  0.13782811  0.07183426     0.22000
C169        C  0.04394587  0.13550872  0.13787787    -0.52800
C170        C  0.03169931  0.13765368  0.10348482     0.11200
C171        C  0.08594617  0.09007358  0.11252459    -0.52400
C172        C  0.07389825  0.09211650  0.07797577     0.11700
H173        H  0.10290341  0.20490914  0.12431613     0.16200
H174        H  0.04411498  0.13942180  0.04396898     0.02000
H175        H  0.03095206  0.13580451  0.16302260     0.16500
H176        H  0.10095188  0.06113875  0.12105508     0.16300
C177        C  0.20642191  0.13071009  0.28058247     0.88100
C178        C  0.19966205  0.17724246  0.30325317    -0.52100
C179        C  0.17129903  0.17968827  0.31587538     0.11100
C180        C  0.15232655  0.13587074  0.30472395     0.22000
C181        C  0.19814652  0.08774791  0.30585205    -0.52800
C182        C  0.16980070  0.09066041  0.31847533     0.11200
C183        C  0.18326384  0.13070721  0.24990141    -0.52400
C184        C  0.15494483  0.13349946  0.26258544     0.11700
H185        H  0.21585041  0.20520336  0.30920313     0.16200
H186        H  0.12925403  0.13799655  0.31500341     0.02000
H187        H  0.21332726  0.05811438  0.31334636     0.16500
H188        H  0.18867761  0.12840319  0.22077249     0.16300
C189        C  0.10227643  0.08763457  0.19141212    -0.11700
C190        C  0.09166744  0.13217097  0.17598345     0.10400
C191        C  0.09675959  0.17606636  0.19556323    -0.11700
C192        C  0.11597479  0.17628630  0.22574477    -0.11700
C193        C  0.12963990  0.13246950  0.23735092     0.10400
C194        C  0.12163624  0.08795674  0.22126420    -0.11700
H195        H  0.09671939  0.05239134  0.17980668     0.14400
H196        H  0.08750344  0.21074096  0.18606810     0.14400
H197        H  0.12156421  0.21091478  0.23853517     0.14400
H198        H  0.13142814  0.05363895  0.23076419     0.14400
C199        C  0.15227764  0.25105225  0.35981247    -0.11600
C200        C  0.16053043  0.21886702  0.33923772    -0.13200
C201        C  0.15780122  0.05508003  0.34362355    -0.11600
C202        C  0.14921041  0.02475223  0.36522555    -0.13200
C203        C  0.09973607  0.25580186  0.05687588    -0.14800
C204        C  0.08170146  0.21779805  0.05119808    -0.30000
H205        H  0.10904983  0.26237848  0.08386727     0.14200
H206        H  0.07206307  0.21267602  0.02409881     0.14800
C207        C  0.10284423  0.02299513  0.05074520    -0.14800
C208        C  0.08062270  0.05611769  0.04805499    -0.30000
H209        H  0.11597285  0.52065457  0.07613343     0.14200
H210        H  0.06727469  0.05748500  0.02322159     0.14800
C211        C  0.26019708  0.37955156  0.02206572    -0.11600
C212        C  0.23566950  0.38128999  0.00914901    -0.13200
C213        C  0.39693832  0.32903091  0.44799181    -0.11700
C214        C  0.40443968  0.37282263  0.42961414     0.10400
C215        C  0.39599004  0.41798893  0.44597407    -0.11700
C216        C  0.37676734  0.41909244  0.47598944    -0.11700
C217        C  0.36648936  0.37524440  0.49098694     0.10400
C218        C  0.37765725  0.33021135  0.47806713    -0.11700
H219        H  0.40431072  0.29365037  0.43751413     0.14400
H220        H  0.40329278  0.45278818  0.43528401     0.14400
H221        H  0.36866846  0.45418604  0.48627030     0.14400
H222        H  0.38455365  0.31033667  0.99799829     0.14400
C223        C  0.23691378  0.12773571  0.26656903    -0.11600
C224        C  0.26188061  0.12548859  0.25488436    -0.13200
C225        C  0.33748680  0.28830679  0.09245865    -0.11600
C226        C  0.34492290  0.25624889  0.11363090    -0.13200
C227        C  0.34871758  0.48367784  0.11922744    -0.11600
C228        C  0.33951338  0.45248811  0.09875486    -0.13200
C229        C  0.40283842  0.48260327  0.30455397    -0.14800
C230        C  0.42564458  0.45045892  0.30429831    -0.30000
H231        H  0.38681165  0.99436053  0.33430993     0.14200
H232        H  0.44092548  0.44988863  0.28124754     0.14800
C233        C  0.39544560  0.25241508  0.30921920    -0.14800
C234        C  0.41313148  0.29077229  0.30366233    -0.30000
H235        H  0.38626331  0.24547730  0.33627656     0.14200
H236        H  0.42297841  0.29618694  0.27669585     0.14800
C237        C  0.99578521  0.35781791  0.42164363    -0.14800
C238        C  0.01529810  0.39038323  0.40871259    -0.30000
H239        H  0.00311392  0.32970183  0.44099956     0.14200
H240        H  0.00747621  0.42170318  0.39265882     0.14800
C241        C  0.90531364  0.36233278  0.31734825    -0.11700
C242        C  0.89880414  0.38829432  0.35005296     0.10400
C243        C  0.87142151  0.41355024  0.35219212    -0.11700
C244        C  0.85160791  0.41343041  0.32304214    -0.11700
C245        C  0.85755526  0.38606875  0.29116984     0.10400
C246        C  0.88499161  0.36161884  0.28803017    -0.11700
H247        H  0.92538695  0.34051465  0.31517952     0.14400
H248        H  0.86401992  0.43131421  0.37722563     0.14400
H249        H  0.83090158  0.43330653  0.32624194     0.14400
H250        H  0.89004171  0.33969880  0.26387612     0.14400
C251        C  0.83200061  0.45818888  0.18217103    -0.11600
C252        C  0.84009690  0.98692604  0.16815820    -0.13200
C253        C  0.84596775  0.25990214  0.16685079    -0.11600
C254        C  0.83703664  0.29250179  0.18671001    -0.13200
C255        C  0.91327975  0.99816461  0.47401859    -0.14800
C256        C  0.92107720  0.44477145  0.47965525    -0.30000
H257        H  0.90892996  0.01015691  0.44601955     0.14200
H258        H  0.93673274  0.44277671  0.50225848     0.14800
C259        C  0.91612079  0.27447533  0.49578253    -0.14800
C260        C  0.91042229  0.27958561  0.45966170    -0.30000
H261        H  0.89081746  0.24885448  0.94887821     0.14200
H262        H  0.89787733  0.25144292  0.44564355     0.14800
C263        C  0.98017095  0.11444031  0.11532717    -0.14800
C264        C  0.99967393  0.14140670  0.09662152    -0.30000
H265        H  0.98777448  0.08773171  0.13561904     0.14200
H266        H  0.99225687  0.16378293  0.07349423     0.14800
C267        C  0.76275713  0.13080237  0.02401796    -0.11600
C268        C  0.73802105  0.13210931  0.01169070    -0.13200
C269        C  0.50432414  0.10983715  0.18511296    -0.14800
C270        C  0.48228880  0.13239381  0.16660706    -0.30000
H271        H  0.49912325  0.08739656  0.20896524     0.14200
H272        H  0.48736071  0.15919344  0.14540877     0.14800
C273        C  0.60719270  0.17879050  0.09001973    -0.11700
C274        C  0.59374422  0.13523441  0.10231568     0.10400
C275        C  0.59551651  0.09350179  0.07925404    -0.11700
C276        C  0.61421879  0.09290080  0.04852029    -0.11700
C277        C  0.63078203  0.13440180  0.03998050     0.10400
C278        C  0.62601600  0.17798252  0.05964391    -0.11700
H279        H  0.60441194  0.21337448  0.10419665     0.14400
H280        H  0.58442587  0.05997734  0.08683728     0.14400
H281        H  0.61740800  0.05908166  0.03316231     0.17200
H282        H  0.63805663  0.21080338  0.05257594     0.14400
C283        C  0.72765982  0.37396779  0.26319775    -0.11600
C284        C  0.75249492  0.37398219  0.25103015    -0.13200
C285        C  0.66309148  0.00217747  0.42426712    -0.11600
C286        C  0.67242930  0.03517434  0.44289526    -0.13200
C287        C  0.65913107  0.23175619  0.41468209    -0.11600
C288        C  0.66900973  0.20053565  0.43504103    -0.13200
C289        C  0.58510035  0.02727214  0.25340767    -0.14800
C290        C  0.59149389  0.03376618  0.21762379    -0.30000
H291        H  0.57515195  0.55317376  0.26765461     0.14200
H292        H  0.60500759  0.00617755  0.20365309     0.14800
C293        C  0.59100018  0.24836745  0.22703467    -0.14800
C294        C  0.58169270  0.20209736  0.23332552    -0.30000
H295        H  0.59273214  0.26201289  0.19906144     0.14200
H296        H  0.57869860  0.18936461  0.26143061     0.14800
C297        C  0.51808902  0.36563171  0.37834453    -0.14800
C298        C  0.49798144  0.34700566  0.35538973    -0.30000
H299        H  0.51110624  0.38794435  0.40168286     0.14200
H300        H  0.50512041  0.33001878  0.32971703     0.14800
O301        O  0.61820368  0.27832962  0.87054569    -0.76900
C302        C  0.54611692  0.38768256  0.85464677     0.84200
O303        O  0.61781607  0.32510265  0.74186134    -0.78000
O304        O  0.59860218  0.48560546  0.78618087    -0.79500
O305        O  0.66415615  0.43813504  0.88737931    -0.79300
O306        O  0.66052871  0.31453568  0.88566454    -0.77900
Zn307      Zn  0.59916455  0.32277770  0.83136645     1.55700
O308        O  0.62404496  0.48341209  0.87390605    -0.79300
Cd309      Cd  0.66133465  0.37688123  0.85337855     1.59700
Cd310      Cd  0.63729244  0.37999094  0.77058603     1.59600
O311        O  0.69940646  0.37279834  0.82095385    -0.79300
O312        O  0.62453132  0.37970593  0.82294894    -1.89800
Cd313      Cd  0.60253529  0.44269289  0.83374421     1.59900
O314        O  0.68197598  0.37197070  0.76356460    -0.79200
O315        O  0.56038744  0.42759234  0.85232388    -0.77900
C316        C  0.60159489  0.28946170  0.75094080     0.84700
C317        C  0.64223432  0.27971592  0.88888530     0.84300
O318        O  0.55799269  0.34588353  0.84739133    -0.76800
C319        C  0.64788715  0.47629635  0.89186977     0.85100
O320        O  0.59332219  0.28272602  0.78416532    -0.76900
C321        C  0.70328581  0.37061835  0.78618216     0.85300
C322        C  0.60946631  0.48047375  0.75389940     0.85600
O323        O  0.62520986  0.44348602  0.74487795    -0.79400
C324        C  0.58879843  0.13124408  0.63980817     0.88100
C325        C  0.59949159  0.09014322  0.66587473    -0.52100
C326        C  0.58438903  0.08775049  0.69840227     0.11100
C327        C  0.56025059  0.12721668  0.70216744     0.22000
C328        C  0.55547555  0.12260214  0.63509306    -0.52800
C329        C  0.54068808  0.12034855  0.66800233     0.11200
C330        C  0.59013301  0.17854007  0.66288222    -0.52400
C331        C  0.57595785  0.17619475  0.69612745     0.11700
H332        H  0.61785790  0.06587870  0.65891946     0.16200
H333        H  0.54806884  0.12537944  0.72870878     0.02000
H334        H  0.54448645  0.11825064  0.60879895     0.16500
H335        H  0.60267069  0.20982435  0.65376638     0.16300
C336        C  0.70771985  0.13091875  0.99728720     0.88100
C337        C  0.70136153  0.08434431  0.97505849    -0.52100
C338        C  0.67319682  0.08266810  0.96206691     0.11100
C339        C  0.65382905  0.12736551  0.97264096     0.22000
C340        C  0.69947299  0.17384398  0.97154581    -0.52800
C341        C  0.67115903  0.17185143  0.95873543     0.11200
C342        C  0.70271764  0.12593411  0.52557529    -0.52400
C343        C  0.67312574  0.12518478  0.51777168     0.11700
H344        H  0.71778495  0.05581228  0.96944568     0.16200
H345        H  0.63084118  0.12591837  0.96213943     0.02000
H346        H  0.71450041  0.20303612  0.96425146     0.16500
H347        H  0.71169268  0.12718668  0.55325301     0.16300
O348        O  0.88485603  0.21818662  0.63314895    -0.76900
C349        C  0.95843122  0.11651549  0.61287631     0.84200
O350        O  0.87570899  0.18230085  0.99374166    -0.78000
O351        O  0.91046850  0.02271140  0.53711098    -0.79500
O352        O  0.83950144  0.06097731  0.63329408    -0.79300
O353        O  0.84053453  0.18412960  0.63789969    -0.77900
Zn354      Zn  0.90533721  0.18093071  0.59220059     1.55700
O355        O  0.88079140  0.01765114  0.62218837    -0.79300
Cd356      Cd  0.84377553  0.12461155  0.60244476     1.59700
Cd357      Cd  0.87488498  0.13244462  0.52166972     1.59600
O358        O  0.80894265  0.12680885  0.56558587    -0.79300
O359        O  0.88228606  0.12536987  0.57576688    -1.89800
Cd360      Cd  0.90402833  0.06180456  0.58577296     1.59900
O361        O  0.83015278  0.13154911  0.51013463    -0.79200
O362        O  0.94550969  0.07591305  0.60716055    -0.77900
C363        C  0.90627514  0.23131584  0.51703164     0.84700
C364        C  0.85917093  0.21645921  0.64717268     0.84300
O365        O  0.94538753  0.15791621  0.60849914    -0.76800
C366        C  0.85578788  0.02292285  0.63786990     0.85100
O367        O  0.91226935  0.22954507  0.55124583    -0.76900
C368        C  0.80741347  0.12893922  0.53057254     0.85300
C369        C  0.90577290  0.03356713  0.50337800     0.85600
O370        O  0.87482649  0.06040330  0.99417620    -0.79400
C371        C  0.91935805  0.37824846  0.89692451     0.88100
C372        C  0.91573728  0.42476083  0.92053427    -0.52100
C373        C  0.92859177  0.42197885  0.95448603     0.11100
C374        C  0.94529657  0.37298750  0.96102590     0.22000
C375        C  0.95301158  0.37079121  0.89421824    -0.52800
C376        C  0.96656547  0.36815484  0.92798069     0.11200
C377        C  0.90872211  0.33612607  0.92146129    -0.52400
C378        C  0.92231501  0.33282423  0.95497395     0.11700
H379        H  0.90283642  0.45614745  0.91115347     0.16200
H380        H  0.95637169  0.37077778  0.98830459     0.02000
H381        H  0.96515049  0.36835491  0.86851871     0.16500
H382        H  0.89127785  0.31199384  0.91263969     0.16300
C383        C  0.78844487  0.36606919  0.74788012     0.88100
C384        C  0.79682494  0.41070444  0.72441984    -0.52100
C385        C  0.82603899  0.41144927  0.71538952     0.11100
C386        C  0.84423293  0.36798173  0.73095089     0.22000
C387        C  0.79879584  0.32113075  0.72582219    -0.52800
C388        C  0.82802940  0.32213208  0.71697115     0.11200
C389        C  0.80874924  0.36740423  0.78117494    -0.52400
C390        C  0.83816113  0.36948545  0.77285743     0.11700
H391        H  0.78108583  0.43870782  0.71538343     0.16200
H392        H  0.86789034  0.36897527  0.72316564     0.02000
H393        H  0.78432065  0.29164913  0.71749658     0.16500
H394        H  0.80013010  0.36644308  0.80906540     0.16300
O395        O  0.44144638  0.16684222  0.65965328    -0.76900
C396        C  0.35150509  0.21924069  0.63301665     0.84200
O397        O  0.39368332  0.20246098  0.77412056    -0.78000
O398        O  0.30845732  0.12459510  0.71599648    -0.79500
O399        O  0.38503412  0.02411010  0.65408111    -0.79300
O400        O  0.44716726  0.08746659  0.67406673    -0.77900
Zn401      Zn  0.40236978  0.18636939  0.68214282     1.55700
O402        O  0.34096983  0.06083192  0.64639371    -0.79300
Cd403      Cd  0.40565142  0.06835847  0.69268794     1.59700
Cd404      Cd  0.37554672  0.13722920  0.75615576     1.59600
O405        O  0.41140763  0.02712676  0.74055057    -0.79300
O406        O  0.38167881  0.12972206  0.70190618    -1.89800
Cd407      Cd  0.34237983  0.12460004  0.67746010     1.59900
O408        O  0.39475566  0.07838740  0.78411745    -0.79200
O409        O  0.33485989  0.18416010  0.64263419    -0.77900
C410        C  0.40681883  0.23684269  0.75702229     0.84700
C411        C  0.45709378  0.12765884  0.66120671     0.84300
O412        O  0.37768035  0.22327145  0.64504787    -0.76800
C413        C  0.35940152  0.02613907  0.63969306     0.85100
O414        O  0.41148872  0.23487592  0.72247454    -0.76900
C415        C  0.40662700  0.03762350  0.77429465     0.85300
C416        C  0.30764576  0.13171258  0.75070382     0.85600
O417        O  0.33087390  0.13823795  0.76973813    -0.79400
C418        C  0.41628619  0.38449939  0.88920153     0.88100
C419        C  0.40566666  0.33851850  0.86889288    -0.52100
C420        C  0.41734489  0.33181981  0.83468614     0.11100
C421        C  0.43879938  0.37270808  0.82332511     0.22000
C422        C  0.45011776  0.38006239  0.88888290    -0.52800
C423        C  0.46192644  0.37370678  0.85441634     0.11200
C424        C  0.40900371  0.42669346  0.86212733    -0.52400
C425        C  0.42103795  0.42115798  0.82778821     0.11700
H426        H  0.39003730  0.31305677  0.88076741     0.16200
H427        H  0.44873249  0.36824369  0.79559274     0.02000
H428        H  0.46338772  0.38068628  0.91377435     0.16500
H429        H  0.39420403  0.45687589  0.86841961     0.16300
C430        C  0.28844283  0.38043176  0.52976944     0.88100
C431        C  0.29388863  0.33396487  0.55292520    -0.52100
C432        C  0.32166488  0.33096076  0.56723128     0.11100
C433        C  0.34139886  0.37454507  0.55727540     0.22000
C434        C  0.29588972  0.42351830  0.55527166    -0.52800
C435        C  0.32368258  0.42039964  0.56963643     0.11200
C436        C  0.31273984  0.37971688  0.50059356    -0.52400
C437        C  0.34046065  0.37651657  0.51499041     0.11700
H438        H  0.27742697  0.30594407  0.55738149     0.16200
H439        H  0.36404255  0.37200094  0.56888943     0.02000
H440        H  0.28070374  0.45376061  0.56123893     0.16500
H441        H  0.30740555  0.38407690  0.97600834     0.16300
O442        O  0.12434097  0.48747079  0.90709004    -0.76900
C443        C  0.04995702  0.38572961  0.92381689     0.84200
O444        O  0.12441836  0.45335457  0.52955419    -0.78000
O445        O  0.09995881  0.28357748  0.99436053    -0.79500
O446        O  0.16660334  0.32345965  0.89278970    -0.79300
O447        O  0.16636801  0.44747801  0.89355715    -0.77900
Zn448      Zn  0.10394181  0.44541043  0.94563323     1.55700
O449        O  0.12574722  0.28195142  0.90622861    -0.79300
Cd450      Cd  0.16500929  0.38522618  0.92635228     1.59700
Cd451      Cd  0.13903715  0.39129661  0.50427493     1.59600
O452        O  0.20266665  0.38372112  0.95945185    -0.79300
O453        O  0.12793866  0.38631938  0.95638085    -1.89800
Cd454      Cd  0.10490421  0.32512281  0.94658593     1.59900
O455        O  0.18401766  0.38952253  0.50971146    -0.79200
O456        O  0.06236697  0.34424315  0.93042726    -0.77900
C457        C  0.10626455  0.48726820  0.52075970     0.84700
C458        C  0.14861193  0.48381643  0.88945686     0.84300
O459        O  0.06361568  0.42618407  0.92678704    -0.76800
C460        C  0.14982647  0.28672182  0.88840795     0.85100
O461        O  0.09727750  0.48750173  0.99194654    -0.76900
C462        C  0.20629153  0.38302232  0.99428930     0.85300
C463        C  0.10803761  0.29635375  0.52642125     0.85600
O464        O  0.12347684  0.33352378  0.53411273    -0.79400
C465        C  0.08891650  0.14011654  0.64027613     0.88100
C466        C  0.09682554  0.18340112  0.61500540    -0.52100
C467        C  0.08072847  0.18601774  0.58312392     0.11100
C468        C  0.05807801  0.14517791  0.57955529     0.22000
C469        C  0.05541587  0.14558056  0.64682150    -0.52800
C470        C  0.03953844  0.14827711  0.61486581     0.11200
C471        C  0.09180856  0.09445423  0.61548430    -0.52400
C472        C  0.07596599  0.09728997  0.58340279     0.11700
H473        H  0.11451337  0.20825300  0.62168443     0.16200
H474        H  0.04485410  0.14725247  0.55379305     0.02000
H475        H  0.04482351  0.14655781  0.67357619     0.16500
H476        H  0.10653919  0.06402651  0.62227005     0.16300
C477        C  0.22280064  0.13460467  0.79034550     0.88100
C478        C  0.21242214  0.17951924  0.81264875    -0.52100
C479        C  0.18290865  0.17964580  0.82020351     0.11100
C480        C  0.16652463  0.13494625  0.80464411     0.22000
C481        C  0.21297654  0.08984550  0.81266663    -0.52800
C482        C  0.18351859  0.09021806  0.82032945     0.11200
C483        C  0.20339836  0.13500307  0.75597406    -0.52400
C484        C  0.17362223  0.13476118  0.76278471     0.11700
H485        H  0.22708854  0.20814215  0.82205698     0.16200
H486        H  0.14279147  0.13473827  0.81189115     0.02000
H487        H  0.22800134  0.06102950  0.82214921     0.16500
H488        H  0.21307235  0.13653201  0.72870757     0.16300
C489        C  0.13934519  0.12555195  0.66722690    -0.11700
C490        C  0.10950310  0.13727018  0.67356320     0.10400
C491        C  0.10066128  0.14789041  0.70996771    -0.11700
C492        C  0.12125225  0.14697713  0.73891101    -0.11700
C493        C  0.15109781  0.13462989  0.73240648     0.10400
C494        C  0.15952114  0.12298640  0.69603844    -0.11700
H495        H  0.14717121  0.11791831  0.63957083     0.14400
H496        H  0.07821867  0.15850013  0.71634271     0.14400
H497        H  0.11363813  0.15710356  0.76610884     0.14400
H498        H  0.18174439  0.11165915  0.68915404     0.14400
C499        C  0.15903973  0.24876594  0.86296467    -0.11600
C500        C  0.16895641  0.21723624  0.84276035    -0.13200
C501        C  0.17010190  0.05307588  0.84315004    -0.11600
C502        C  0.16051913  0.02171973  0.86332098    -0.13200
C503        C  0.10217900  0.26178916  0.55668544    -0.14800
C504        C  0.08542692  0.22188225  0.55286674    -0.30000
H505        H  0.11213648  0.27016356  0.58305345     0.14200
H506        H  0.07473607  0.21490555  0.52664063     0.14800
C507        C  0.08932101  0.01552529  0.55875211    -0.14800
C508        C  0.07832325  0.06086153  0.55303359    -0.30000
H509        H  0.11684005  0.52645716  0.57066749     0.14200
H510        H  0.07243107  0.07259878  0.52535526     0.14800
C511        C  0.25880836  0.38347066  0.51361095    -0.11600
C512        C  0.23450045  0.38513381  0.50016756    -0.13200
C513        C  0.40365087  0.34661159  0.95114896    -0.11700
C514        C  0.40271137  0.38816796  0.92777318     0.10400
C515        C  0.38640583  0.42982318  0.93966698    -0.11700
C516        C  0.36811226  0.42713489  0.97043072    -0.11700
C517        C  0.36645790  0.38359444  0.99078493     0.10400
C518        C  0.38541490  0.34414975  0.98226151    -0.11700
H519        H  0.41673055  0.31449768  0.94364420     0.14400
H520        H  0.38651205  0.46425993  0.92502125     0.14400
H521        H  0.35407747  0.45839658  0.97734988     0.14400
H522        H  0.37001896  0.29599028  0.48972300     0.14400
C523        C  0.25444388  0.13400016  0.78086055    -0.11600
C524        C  0.27930927  0.13288674  0.76875153    -0.13200
C525        C  0.33162251  0.28997259  0.58938519    -0.11600
C526        C  0.34028824  0.25653904  0.60855557    -0.13200
C527        C  0.34364940  0.48969667  0.61418213    -0.11600
C528        C  0.33522087  0.45758886  0.59391120    -0.13200
C529        C  0.40640286  0.50366349  0.80315733    -0.14800
C530        C  0.41618259  0.45716568  0.79713137    -0.30000
H531        H  0.41208555  0.01551737  0.83159808     0.14200
H532        H  0.42058193  0.44489773  0.76915772     0.14800
C533        C  0.41669492  0.28071034  0.77738347    -0.14800
C534        C  0.40931564  0.28791263  0.81280375    -0.30000
H535        H  0.42924613  0.30789793  0.76248396     0.14200
H536        H  0.39595014  0.26059838  0.82659205     0.14800
C537        C  0.99873666  0.36164926  0.93318632    -0.14800
C538        C  0.01846992  0.38747599  0.91384050    -0.30000
H539        H  0.00617713  0.33926127  0.95629296     0.14200
H540        H  0.01095247  0.41448078  0.89372263     0.14800
C541        C  0.91017000  0.36155833  0.82764848    -0.11700
C542        C  0.90092010  0.38081973  0.86190380     0.10400
C543        C  0.87161431  0.39767924  0.86534173    -0.11700
C544        C  0.85239439  0.39677159  0.83583003    -0.11700
C545        C  0.86083378  0.37543243  0.80218564     0.10400
C546        C  0.89018518  0.35869162  0.79803639    -0.11700
H547        H  0.93217776  0.34653545  0.82408211     0.14400
H548        H  0.86311349  0.41101625  0.89143108     0.14400
H549        H  0.83054683  0.41218996  0.84005495     0.14400
H550        H  0.89742350  0.34175890  0.77255267     0.14400
C551        C  0.83823876  0.44895578  0.69193887    -0.11600
C552        C  0.84537518  0.98449537  0.66157102    -0.13200
C553        C  0.85055180  0.25311867  0.67363714    -0.11600
C554        C  0.84154638  0.28463894  0.69428675    -0.13200
C555        C  0.89770173  0.98743067  0.97392356    -0.14800
C556        C  0.92416242  0.45987519  0.98370314    -0.30000
H557        H  0.88886333  0.99709358  0.94717671     0.14200
H558        H  0.92969548  0.44966407  0.01182737     0.14800
C559        C  0.89900182  0.25543087  0.97643739    -0.14800
C560        C  0.91538017  0.29527893  0.98356793    -0.30000
H561        H  0.92769318  0.30290479  0.51061424     0.14200
H562        H  0.92429742  0.30050073  0.01102901     0.14800
C563        C  0.98990138  0.11557267  0.62282629    -0.14800
C564        C  0.00727423  0.15309307  0.61344804    -0.30000
H565        H  0.99964404  0.08177771  0.63366241     0.14200
H566        H  0.99810052  0.18477127  0.59896242     0.14800
C567        C  0.77885824  0.12768475  0.51363889    -0.11600
C568        C  0.75405306  0.12579282  0.50184421    -0.13200
C569        C  0.50900681  0.11001124  0.67198233    -0.14800
C570        C  0.48825554  0.13030318  0.65025236    -0.30000
H571        H  0.50236355  0.09019743  0.69657834     0.14200
H572        H  0.49446476  0.15510988  0.62818625     0.14800
C573        C  0.63737472  0.15038069  0.61034838    -0.11700
C574        C  0.60851030  0.13325502  0.60576510     0.10400
C575        C  0.60058954  0.11416780  0.57110016    -0.11700
C576        C  0.62126139  0.11200138  0.54218582    -0.11700
C577        C  0.65010867  0.12938079  0.54719496     0.10400
C578        C  0.65738627  0.14995824  0.58144426    -0.11700
H579        H  0.64477620  0.16389661  0.63679103     0.14400
H580        H  0.57904561  0.09889139  0.56653927     0.14400
H581        H  0.61481949  0.09525185  0.51645848     0.17200
H582        H  0.67877666  0.16554088  0.58655109     0.14400
C583        C  0.73266886  0.36709017  0.77156625    -0.11600
C584        C  0.75733820  0.36560597  0.75911886    -0.13200
C585        C  0.65637476  0.01168735  0.91724004    -0.11600
C586        C  0.66341374  0.04373562  0.93829563    -0.13200
C587        C  0.64969163  0.24029401  0.91374857    -0.11600
C588        C  0.65869571  0.20860692  0.93435268    -0.13200
C589        C  0.60571171  0.00965932  0.72243373    -0.14800
C590        C  0.59023642  0.05140900  0.72809335    -0.30000
H591        H  0.61626979  0.51244045  0.69967536     0.14200
H592        H  0.58069908  0.05873170  0.75503005     0.14800
C593        C  0.59329886  0.25573956  0.72113084    -0.14800
C594        C  0.57887001  0.21341883  0.72605242    -0.30000
H595        H  0.60095136  0.26613162  0.69402520     0.14200
H596        H  0.57081397  0.20399539  0.75330260     0.14800
C597        C  0.51477970  0.39078864  0.86556687    -0.14800
C598        C  0.49390378  0.36648291  0.84699610    -0.30000
H599        H  0.50836711  0.41771015  0.88629405     0.14200
H600        H  0.50022035  0.34389580  0.82350854     0.14800
O601        O  0.62088794  0.76968902  0.37651144    -0.76900
C602        C  0.54803938  0.87390689  0.37266206     0.84200
O603        O  0.60846847  0.82513342  0.24836777    -0.78000
O604        O  0.59052117  0.98248447  0.30877956    -0.79500
O605        O  0.66817524  0.92922452  0.39046628    -0.79300
O606        O  0.66409763  0.80554405  0.38694410    -0.77900
Zn607      Zn  0.59958289  0.81426342  0.33964133     1.55700
O608        O  0.62561920  0.97128706  0.38788467    -0.79300
Cd609      Cd  0.66141231  0.86929639  0.35585379     1.59700
Cd610      Cd  0.62802498  0.88254368  0.27633086     1.59600
O611        O  0.69504886  0.86808808  0.31734233    -0.79300
O612        O  0.62231964  0.87371658  0.33055234    -1.89800
Cd613      Cd  0.60103172  0.93311114  0.35026472     1.59900
O614        O  0.67265100  0.88052080  0.26316203    -0.79200
O615        O  0.56206442  0.91391621  0.37448883    -0.77900
C616        C  0.59669305  0.78501649  0.25850788     0.84700
C617        C  0.64610202  0.77066689  0.39205703     0.84300
O618        O  0.55938147  0.83445587  0.35939796    -0.76800
C619        C  0.65172215  0.96547254  0.39993135     0.85100
O620        O  0.59278207  0.77476438  0.29246207    -0.76900
C621        C  0.69581107  0.87379761  0.28251142     0.85300
C622        C  0.59574745  0.98374864  0.27433958     0.85600
O623        O  0.60978922  0.94902771  0.25796394    -0.79400
C624        C  0.58743378  0.63172443  0.14231691     0.88100
C625        C  0.59972843  0.58678850  0.16289172    -0.52100
C626        C  0.58719347  0.57829724  0.19623662     0.11100
C627        C  0.56307789  0.61657513  0.20653889     0.22000
C628        C  0.55387382  0.62342444  0.14017980    -0.52800
C629        C  0.54116462  0.61528692  0.17399845     0.11200
C630        C  0.59019153  0.67482174  0.16943819    -0.52400
C631        C  0.57792584  0.66717432  0.20332304     0.11700
H632        H  0.61696840  0.56304574  0.15155267     0.16200
H633        H  0.55240504  0.61054650  0.23361943     0.02000
H634        H  0.54137255  0.62362100  0.11468980     0.16500
H635        H  0.60150990  0.70820278  0.16219336     0.16300
C636        C  0.71200171  0.62257555  0.50126307     0.88100
C637        C  0.70609530  0.57510611  0.47999552    -0.52100
C638        C  0.67816822  0.57282510  0.46641246     0.11100
C639        C  0.65863050  0.61800199  0.47521495     0.22000
C640        C  0.70425947  0.66446642  0.47439650    -0.52800
C641        C  0.67620392  0.66203545  0.46086342     0.11200
C642        C  0.69745801  0.62926684  0.02492904    -0.52400
C643        C  0.66785656  0.62911141  0.01727796     0.11700
H644        H  0.72251018  0.54610327  0.47586392     0.16200
H645        H  0.63582169  0.61606661  0.46417204     0.02000
H646        H  0.71935668  0.69357313  0.46713411     0.16500
H647        H  0.70634524  0.62990752  0.05270228     0.16300
O648        O  0.87969198  0.72327693  0.13472807    -0.76900
C649        C  0.95381345  0.62234892  0.11465249     0.84200
O650        O  0.87894701  0.67205922  0.49425178    -0.78000
O651        O  0.90719067  0.52907750  0.03954197    -0.79500
O652        O  0.83460912  0.56689329  0.13415418    -0.79300
O653        O  0.83489066  0.69035727  0.13740663    -0.77900
Zn654      Zn  0.90058996  0.68648952  0.09392156     1.55700
O655        O  0.87620007  0.52413079  0.12353510    -0.79300
Cd656      Cd  0.83851793  0.63017930  0.10262337     1.59700
Cd657      Cd  0.87041477  0.63802550  0.02259724     1.59600
O658        O  0.80378502  0.63136409  0.06515872    -0.79300
O659        O  0.87742260  0.63128106  0.07681580    -1.89800
Cd660      Cd  0.89941920  0.56824458  0.08760523     1.59900
O661        O  0.82543116  0.63740459  0.01006923    -0.79200
O662        O  0.94050084  0.58197168  0.10985861    -0.77900
C663        C  0.90274508  0.73667573  0.01908291     0.84700
C664        C  0.85357027  0.72220213  0.14751380     0.84300
O665        O  0.94112498  0.66391330  0.10964321    -0.76800
C666        C  0.85115360  0.52917258  0.13903281     0.85100
O667        O  0.90762072  0.73544119  0.05354936    -0.76900
C668        C  0.80244075  0.63400139  0.03011571     0.85300
C669        C  0.90278768  0.53942941  0.00570249     0.85600
O670        O  0.87624233  0.55032697  0.50003948    -0.79400
C671        C  0.91351941  0.87118732  0.39411480     0.88100
C672        C  0.91059826  0.91722581  0.41845892    -0.52100
C673        C  0.92551141  0.91433629  0.45111301     0.11100
C674        C  0.94268984  0.86567480  0.45607179     0.22000
C675        C  0.94715207  0.86447280  0.38890301    -0.52800
C676        C  0.96221148  0.86150472  0.42158145     0.11200
C677        C  0.90450567  0.82832756  0.41919327    -0.52400
C678        C  0.91981345  0.82518798  0.45159504     0.11700
H679        H  0.89664555  0.94829211  0.41079426     0.16200
H680        H  0.95516754  0.86338033  0.48239389     0.02000
H681        H  0.95829597  0.86253611  0.36251471     0.16500
H682        H  0.88688298  0.80365856  0.41182574     0.16300
C683        C  0.78048030  0.87370351  0.24367286     0.88100
C684        C  0.78949372  0.91827854  0.22071676    -0.52100
C685        C  0.81888137  0.91894437  0.21287746     0.11100
C686        C  0.83663415  0.87528991  0.22905946     0.22000
C687        C  0.79133166  0.82874999  0.22202519    -0.52800
C688        C  0.82074973  0.82957750  0.21442653     0.11200
C689        C  0.79996401  0.87487866  0.27794283    -0.52400
C690        C  0.82970604  0.87610909  0.27090657     0.11700
H691        H  0.77398559  0.94614923  0.21086419     0.16200
H692        H  0.86034679  0.87616796  0.22171094     0.02000
H693        H  0.77707051  0.79920930  0.21323131     0.16500
H694        H  0.79042870  0.87329469  0.30528850     0.16300
O695        O  0.44131029  0.66536316  0.17871514    -0.76900
C696        C  0.35645958  0.71829324  0.14001978     0.84200
O697        O  0.38766046  0.67347735  0.28939959    -0.78000
O698        O  0.30371279  0.62875641  0.21382804    -0.79500
O699        O  0.38316785  0.51985224  0.15849644    -0.79300
O700        O  0.44613386  0.58365653  0.18103308    -0.77900
Zn701      Zn  0.40050677  0.68208743  0.19822336     1.55700
O702        O  0.33933454  0.55741493  0.14979232    -0.79300
Cd703      Cd  0.40414758  0.56259389  0.19815283     1.59700
Cd704      Cd  0.36709688  0.61969475  0.26122094     1.59600
O705        O  0.40997029  0.51867036  0.24502949    -0.79300
O706        O  0.37866123  0.62228534  0.20856307    -1.89800
Cd707      Cd  0.34105231  0.62206447  0.17981073     1.59900
O708        O  0.37966340  0.55508366  0.28530256    -0.79200
O709        O  0.33996757  0.68102885  0.14344149    -0.77900
C710        C  0.40122718  0.71162804  0.27929830     0.84700
C711        C  0.45667887  0.62613012  0.17464643     0.84300
O712        O  0.37947477  0.72402338  0.15963828    -0.76800
C713        C  0.35762304  0.52226060  0.14369071     0.85100
O714        O  0.40644949  0.72110451  0.24546641    -0.76900
C715        C  0.39748406  0.52062511  0.27651403     0.85300
C716        C  0.30073897  0.63179138  0.24874584     0.85600
O717        O  0.32264907  0.62947762  0.27044708    -0.79400
C718        C  0.41645128  0.86798446  0.39092561     0.88100
C719        C  0.41102862  0.82363897  0.36562724    -0.52100
C720        C  0.42548962  0.82538801  0.33265284     0.11100
C721        C  0.44478902  0.87051003  0.32842822     0.22000
C722        C  0.45018748  0.86827170  0.39555594    -0.52800
C723        C  0.46491939  0.86884260  0.36251615     0.11200
C724        C  0.40921710  0.91315792  0.36721215    -0.52400
C725        C  0.42382359  0.91462922  0.33427664     0.11700
H726        H  0.39596882  0.79465860  0.37299892     0.16200
H727        H  0.45684028  0.87147170  0.30176137     0.02000
H728        H  0.46138568  0.86462299  0.42182054     0.16500
H729        H  0.39310310  0.94041957  0.37614121     0.16300
C730        C  0.29248559  0.87272866  0.03379639     0.88100
C731        C  0.30073214  0.82568514  0.05512585    -0.52100
C732        C  0.32908177  0.82512290  0.06790491     0.11100
C733        C  0.34665099  0.87121238  0.05788991     0.22000
C734        C  0.29934128  0.91506698  0.06029560    -0.52800
C735        C  0.32775426  0.91415447  0.07279698     0.11200
C736        C  0.31554107  0.87663305  0.00326626    -0.52400
C737        C  0.34390818  0.87594622  0.01580598     0.11700
H738        H  0.28535285  0.79629717  0.06056804     0.16200
H739        H  0.36974388  0.87077964  0.06814182     0.02000
H740        H  0.28333847  0.94326120  0.06821407     0.16500
H741        H  0.29580478  0.89592348  0.47612308     0.16300
O742        O  0.11788224  0.99154060  0.40987841    -0.76900
C743        C  0.04428213  0.88881823  0.42560426     0.84200
O744        O  0.12646264  0.95004950  0.03311426    -0.78000
O745        O  0.09600682  0.78454390  0.49539493    -0.79500
O746        O  0.16172930  0.82733339  0.39603128    -0.79300
O747        O  0.15912695  0.95045199  0.39464402    -0.77900
Zn748      Zn  0.09795306  0.94894623  0.44846405     1.55700
O749        O  0.12001218  0.78698266  0.40712132    -0.79300
Cd750      Cd  0.15892171  0.88976370  0.42874582     1.59700
Cd751      Cd  0.14150552  0.88742050  0.00806028     1.59600
O752        O  0.19613949  0.89392215  0.46219271    -0.79300
O753        O  0.12183371  0.88980612  0.45842205    -1.89800
Cd754      Cd  0.09927234  0.82835355  0.44829775     1.59900
O755        O  0.18668908  0.88354412  0.01481615    -0.79200
O756        O  0.05680884  0.84731603  0.43195743    -0.77900
C757        C  0.10986502  0.98554128  0.02285004     0.84700
C758        C  0.14156487  0.98708725  0.39112854     0.84300
O759        O  0.05773919  0.92935660  0.42944205    -0.76800
C760        C  0.14455449  0.79143870  0.39032938     0.85100
O761        O  0.09113029  0.98933091  0.49556819    -0.76900
C762        C  0.19926216  0.89734861  0.49700427     0.85300
C763        C  0.10943423  0.79186708  0.02759218     0.85600
O764        O  0.12459409  0.82895225  0.03654231    -0.79400
C765        C  0.08434196  0.63489409  0.13923390     0.88100
C766        C  0.09396557  0.67753966  0.11435786    -0.52100
C767        C  0.07944760  0.68043245  0.08135889     0.11100
C768        C  0.05673566  0.63984683  0.07617351     0.22000
C769        C  0.05076166  0.64138139  0.14327108    -0.52800
C770        C  0.03639809  0.64386023  0.11012403     0.11200
C771        C  0.08769767  0.58858619  0.11527755    -0.52400
C772        C  0.07436464  0.59166785  0.08154021     0.11700
H773        H  0.11142702  0.70211249  0.12241216     0.16200
H774        H  0.04489047  0.64192034  0.04939543     0.02000
H775        H  0.03917536  0.64327129  0.16938573     0.16500
H776        H  0.09998836  0.55651262  0.12469437     0.16300
C777        C  0.21599426  0.64181071  0.28880779     0.88100
C778        C  0.20586958  0.68691148  0.31104668    -0.52100
C779        C  0.17651627  0.68657703  0.31965157     0.11100
C780        C  0.16001397  0.64138465  0.30502116     0.22000
C781        C  0.20690034  0.59724342  0.31196922    -0.52800
C782        C  0.17757758  0.59727682  0.32056900     0.11200
C783        C  0.19590102  0.64131995  0.25525433    -0.52400
C784        C  0.16639817  0.64009895  0.26313873     0.11700
H785        H  0.22059733  0.71576995  0.31987106     0.16200
H786        H  0.13629853  0.64091007  0.31254612     0.02000
H787        H  0.22222761  0.56858232  0.32094908     0.16500
H788        H  0.20477365  0.64225172  0.22749740     0.16300
C789        C  0.13271199  0.61570241  0.16976983    -0.11700
C790        C  0.10340737  0.63229775  0.17379443     0.10400
C791        C  0.09437658  0.65034159  0.20850905    -0.11700
C792        C  0.11447098  0.65213297  0.23803045    -0.11700
C793        C  0.14379915  0.63553571  0.23345385     0.10400
C794        C  0.15212828  0.61564554  0.19921330    -0.11700
H795        H  0.14092808  0.60294996  0.14337417     0.14400
H796        H  0.07238378  0.66512790  0.21263807     0.14400
H797        H  0.10726271  0.66807369  0.26387000     0.14400
H798        H  0.17394350  0.60038479  0.19452039     0.14400
C799        C  0.15360086  0.75431472  0.36422424    -0.11600
C800        C  0.16305648  0.72350991  0.34314268    -0.13200
C801        C  0.16449379  0.55951654  0.34304043    -0.11600
C802        C  0.15482744  0.52741220  0.36241783    -0.13200
C803        C  0.10269081  0.75623751  0.05693947    -0.14800
C804        C  0.08554807  0.71691357  0.05182497    -0.30000
H805        H  0.11213219  0.76354620  0.08377097     0.14200
H806        H  0.07543477  0.71106765  0.02508677     0.14800
C807        C  0.10106578  0.52145797  0.05284057    -0.14800
C808        C  0.07874744  0.55462214  0.05160340    -0.30000
H809        H  0.11670313  0.02161896  0.07498353     0.14200
H810        H  0.06434399  0.55612916  0.02772118     0.14800
C811        C  0.26208923  0.87401704  0.01939128    -0.11600
C812        C  0.23750295  0.87624995  0.00651453    -0.13200
C813        C  0.40614814  0.88011685  0.46054679    -0.11700
C814        C  0.39675941  0.86723878  0.42484871     0.10400
C815        C  0.36673687  0.85769670  0.41927755    -0.11700
C816        C  0.34685658  0.85935325  0.44813209    -0.11700
C817        C  0.35563305  0.87424111  0.48343622     0.10400
C818        C  0.38565400  0.88389299  0.48958221    -0.11700
H819        H  0.42883273  0.88939192  0.46588612     0.14400
H820        H  0.35835433  0.84918004  0.39210986     0.14400
H821        H  0.32436470  0.84943824  0.44217962     0.14400
H822        H  0.38705835  0.80934682  0.99823447     0.14400
C823        C  0.24725036  0.64100710  0.27763929    -0.11600
C824        C  0.27174028  0.63763965  0.26457097    -0.13200
C825        C  0.34040659  0.78672438  0.09181421    -0.11600
C826        C  0.34848965  0.75539947  0.11334666    -0.13200
C827        C  0.34738093  0.98266055  0.11800789    -0.11600
C828        C  0.33902167  0.95095951  0.09743575    -0.13200
C829        C  0.39894932  0.98943050  0.30887851    -0.14800
C830        C  0.41862725  0.95229865  0.30510066    -0.30000
H831        H  0.38691619  0.48211210  0.32681591     0.14200
H832        H  0.43076459  0.94833006  0.27944015     0.14800
C833        C  0.41010543  0.74521101  0.30862735    -0.14800
C834        C  0.42139993  0.78964362  0.30241144    -0.30000
H835        H  0.40588806  0.73303065  0.33656991     0.14200
H836        H  0.42680699  0.80092462  0.27453226     0.14800
C837        C  0.99442477  0.85478673  0.42457804    -0.14800
C838        C  0.01290047  0.89061469  0.41482703    -0.30000
H839        H  0.00256460  0.82349709  0.44040022     0.14200
H840        H  0.00410313  0.92419306  0.40248967     0.14800
C841        C  0.90255245  0.86311008  0.32415057    -0.11700
C842        C  0.89348527  0.87446162  0.36034390     0.10400
C843        C  0.86371849  0.88722442  0.36618996    -0.11700
C844        C  0.84379538  0.88986708  0.33719230    -0.11700
C845        C  0.85229596  0.87703905  0.30113165     0.10400
C846        C  0.88210701  0.86394275  0.29496688    -0.11700
H847        H  0.92499627  0.85192968  0.31825308     0.14400
H848        H  0.85571298  0.89550276  0.39366453     0.14400
H849        H  0.82164224  0.90202398  0.34368673     0.14400
H850        H  0.88971828  0.85308694  0.26791015     0.14400
C851        C  0.83140333  0.95591399  0.18920343    -0.11600
C852        C  0.84103808  0.49060254  0.16269389    -0.13200
C853        C  0.84443886  0.75933301  0.17329100    -0.11600
C854        C  0.83490640  0.79148912  0.19297970    -0.13200
C855        C  0.89825049  0.47697739  0.48071736    -0.14800
C856        C  0.92325323  0.95214051  0.48060611    -0.30000
H857        H  0.88204014  0.47726558  0.45874903     0.14200
H858        H  0.92872202  0.94097137  0.50854329     0.14800
C859        C  0.90009510  0.74591360  0.47455384    -0.14800
C860        C  0.91474621  0.78774013  0.48077706    -0.30000
H861        H  0.92206169  0.81026980  0.01342690     0.14200
H862        H  0.92366027  0.79480190  0.50801082     0.14800
C863        C  0.98530310  0.62074093  0.12421101    -0.14800
C864        C  0.00420062  0.64994400  0.10641877    -0.30000
H865        H  0.99357808  0.59151760  0.14202774     0.14200
H866        H  0.99606213  0.67490074  0.08520879     0.14800
C867        C  0.77380693  0.63243655  0.01278621    -0.11600
C868        C  0.74889017  0.63043779  0.00092600    -0.13200
C869        C  0.50944630  0.60495915  0.17985790    -0.14800
C870        C  0.48780972  0.63093670  0.16322304    -0.30000
H871        H  0.50384195  0.57940557  0.20171163     0.14200
H872        H  0.49343923  0.66063066  0.14457002     0.14800
C873        C  0.63278541  0.66034063  0.10886575    -0.11700
C874        C  0.60478864  0.63874539  0.10668506     0.10400
C875        C  0.59723886  0.61472974  0.07362611    -0.11700
C876        C  0.61715956  0.61275114  0.04386491    -0.11700
C877        C  0.64512658  0.63415811  0.04679179     0.10400
C878        C  0.65211606  0.65933816  0.07925598    -0.11700
H879        H  0.64071305  0.67634059  0.13419994     0.14400
H880        H  0.57667330  0.59533886  0.07134780     0.14400
H881        H  0.61119947  0.59251909  0.01935735     0.17200
H882        H  0.67305910  0.67738121  0.08246288     0.14400
C883        C  0.72407957  0.87304492  0.26469826    -0.11600
C884        C  0.74897618  0.87296939  0.25299787    -0.13200
C885        C  0.66071947  0.49879406  0.42516644    -0.11600
C886        C  0.66842000  0.53192836  0.44474355    -0.13200
C887        C  0.65491357  0.73094230  0.41604536    -0.11600
C888        C  0.66400447  0.69882382  0.43625131    -0.13200
C889        C  0.58847693  0.52623549  0.25290352    -0.14800
C890        C  0.59619888  0.53413217  0.21777270    -0.30000
H891        H  0.57238499  0.05484746  0.26830617     0.14200
H892        H  0.61041833  0.50729709  0.20405437     0.14800
C893        C  0.58829817  0.75018355  0.22912544    -0.14800
C894        C  0.58059414  0.70287485  0.23457652    -0.30000
H895        H  0.59011894  0.76440882  0.20134321     0.14200
H896        H  0.57762664  0.68922859  0.26243840     0.14800
C897        C  0.51688187  0.87496870  0.38318051    -0.14800
C898        C  0.49696887  0.86148435  0.35809876    -0.30000
H899        H  0.51011987  0.89391398  0.40819472     0.14200
H900        H  0.50456381  0.84766110  0.33156556     0.14800
O901        O  0.62136036  0.77626775  0.87298481    -0.76900
C902        C  0.54879778  0.88385446  0.85415771     0.84200
O903        O  0.62440703  0.81411052  0.74474379    -0.78000
O904        O  0.60180664  0.98024179  0.78425144    -0.79500
O905        O  0.66539383  0.93661456  0.88784471    -0.79300
O906        O  0.66367487  0.81315229  0.88717416    -0.77900
Zn907      Zn  0.60223871  0.81917334  0.83295596     1.55700
O908        O  0.62526104  0.98047741  0.87215849    -0.79300
Cd909      Cd  0.66409123  0.87490245  0.85421903     1.59700
Cd910      Cd  0.64100114  0.87410197  0.77083748     1.59600
O911        O  0.70279891  0.87274213  0.82279695    -0.79300
O912        O  0.62761756  0.87574998  0.82305574    -1.89800
Cd913      Cd  0.60502296  0.93850850  0.83218384     1.59900
O914        O  0.68627584  0.87136789  0.76499765    -0.79200
O915        O  0.56273802  0.92385519  0.85030625    -0.77900
C916        C  0.60696921  0.78026223  0.75429121     0.84700
C917        C  0.64545256  0.77835668  0.89113473     0.84300
O918        O  0.56102046  0.84193365  0.84851069    -0.76800
C919        C  0.64859557  0.97433383  0.89119943     0.85100
O920        O  0.59650418  0.77740498  0.78683663    -0.76900
C921        C  0.70730941  0.87148306  0.78811937     0.85300
C922        C  0.61143181  0.97317136  0.75159192     0.85600
O923        O  0.62627136  0.93497656  0.74272102    -0.79400
C924        C  0.58020122  0.63303202  0.63938441     0.88100
C925        C  0.59126917  0.59115770  0.66482606    -0.52100
C926        C  0.57735770  0.58938410  0.69835838     0.11100
C927        C  0.55408739  0.63000296  0.70351159     0.22000
C928        C  0.54686501  0.62629146  0.63685862    -0.52800
C929        C  0.53321314  0.62467441  0.67038488     0.11200
C930        C  0.58411055  0.67951035  0.66303384    -0.52400
C931        C  0.57109020  0.67755621  0.69700311     0.11700
H932        H  0.60885693  0.56609422  0.65666105     0.16200
H933        H  0.54281182  0.62876227  0.73069230     0.02000
H934        H  0.53531266  0.62183323  0.61089227     0.16500
H935        H  0.59731395  0.71017374  0.65468428     0.16300
C936        C  0.71733999  0.62878586  0.99096344     0.88100
C937        C  0.70832756  0.58301978  0.96926264    -0.52100
C938        C  0.67891617  0.58213755  0.96115145     0.11100
C939        C  0.66119367  0.62692526  0.97559252     0.22000
C940        C  0.70665436  0.67261595  0.96761101    -0.52800
C941        C  0.67726626  0.67141148  0.95950142     0.11200
C942        C  0.68814665  0.62524043  0.53099756    -0.52400
C943        C  0.66019123  0.62277073  0.51731201     0.11700
H944        H  0.72382875  0.55454655  0.96042582     0.16200
H945        H  0.63737801  0.62643500  0.96852385     0.02000
H946        H  0.72101499  0.70162274  0.95808587     0.16500
H947        H  0.69282735  0.62918896  0.56021092     0.16300
O948        O  0.87939442  0.71851904  0.62270930    -0.76900
C949        C  0.95342836  0.61611921  0.60896150     0.84200
O950        O  0.88900570  0.70233452  0.00271488    -0.78000
O951        O  0.90546316  0.51170047  0.54063043    -0.79500
O952        O  0.83813898  0.55510182  0.64143543    -0.79300
O953        O  0.83906345  0.67859399  0.64047238    -0.77900
Zn954      Zn  0.89889963  0.67537302  0.58380865     1.55700
O955        O  0.87924639  0.51274770  0.62753157    -0.79300
Cd956      Cd  0.83939133  0.61674274  0.60789432     1.59700
Cd957      Cd  0.86233135  0.61449375  0.52411048     1.59600
O958        O  0.80089449  0.61939042  0.57686045    -0.79300
O959        O  0.87553998  0.61629925  0.57626690    -1.89800
Cd960      Cd  0.89959039  0.55535762  0.58752698     1.59900
O961        O  0.81716321  0.61893487  0.51888443    -0.79200
O962        O  0.94064559  0.57481164  0.60691486    -0.77900
C963        C  0.89371641  0.70944553  0.50352809     0.84700
C964        C  0.85618851  0.71513697  0.64233823     0.84300
O965        O  0.94034011  0.65649390  0.60052159    -0.76800
C966        C  0.85530810  0.51802368  0.64560409     0.85100
O967        O  0.90242801  0.71582595  0.53660494    -0.76900
C968        C  0.79631536  0.62045782  0.54225250     0.85300
C969        C  0.89338909  0.51484970  0.50894496     0.85600
O970        O  0.89000263  0.57922463  0.99548413    -0.79400
C971        C  0.92104297  0.87686260  0.88490229     0.88100
C972        C  0.91105376  0.91735745  0.91210640    -0.52100
C973        C  0.92195254  0.91235344  0.94711470     0.11100
C974        C  0.94164116  0.86610041  0.95181130     0.22000
C975        C  0.95485130  0.87632731  0.88692431    -0.52800
C976        C  0.96572252  0.87063531  0.92192113     0.11200
C977        C  0.91160688  0.82924148  0.90414902    -0.52400
C978        C  0.92209628  0.82337158  0.93896936     0.11700
H979        H  0.89535454  0.94575466  0.90474702     0.16200
H980        H  0.95076648  0.86171538  0.98000468     0.02000
H981        H  0.96885341  0.87908013  0.86275785     0.16500
H982        H  0.89684153  0.80285992  0.89172655     0.16300
C983        C  0.79173704  0.87136254  0.74576647     0.88100
C984        C  0.79750647  0.91476394  0.71969236    -0.52100
C985        C  0.82556828  0.91489702  0.70593911     0.11100
C986        C  0.84516617  0.87191612  0.71929429     0.22000
C987        C  0.79978334  0.82521024  0.72335438    -0.52800
C988        C  0.82777997  0.82576520  0.70954998     0.11200
C989        C  0.81567325  0.87474098  0.77536681    -0.52400
C990        C  0.84364880  0.87494235  0.76143616     0.11700
H991        H  0.78108700  0.94286010  0.71299567     0.16200
H992        H  0.86797019  0.87217727  0.70806771     0.02000
H993        H  0.78473090  0.79514199  0.71862058     0.16500
H994        H  0.81100494  0.87693632  0.80470017     0.16300
O995        O  0.43419540  0.66875383  0.65921867    -0.76900
C996        C  0.34527618  0.72254963  0.63220422     0.84200
O997        O  0.38898627  0.70409578  0.77405608    -0.78000
O998        O  0.30218003  0.62776782  0.71503187    -0.79500
O999        O  0.37780759  0.52663893  0.65331579    -0.79300
O1000       O  0.43986856  0.58969582  0.67479796    -0.77900
Zn1001     Zn  0.39557882  0.68894540  0.68179568     1.55700
O1002       O  0.33386116  0.56344097  0.64508499    -0.79300
Cd1003     Cd  0.39824588  0.57055778  0.69233570     1.59700
Cd1004     Cd  0.36915295  0.64019646  0.75560231     1.59600
O1005       O  0.40371703  0.52886102  0.74002501    -0.79300
O1006       O  0.37477067  0.63238798  0.70128650    -1.89800
Cd1007     Cd  0.33570703  0.62753849  0.67619264     1.59900
O1008       O  0.38721265  0.58027731  0.78350383    -0.79200
O1009       O  0.32849056  0.68738294  0.64130962    -0.77900
C1010       C  0.40235947  0.73815150  0.75684675     0.84700
C1011       C  0.44982678  0.62969284  0.66170745     0.84300
O1012       O  0.37124615  0.72650053  0.64487449    -0.76800
C1013       C  0.35226601  0.52857055  0.63866028     0.85100
O1014       O  0.40592732  0.73676091  0.72209523    -0.76900
C1015       C  0.39889079  0.53934202  0.77375202     0.85300
C1016       C  0.30139228  0.63542783  0.74967486     0.85600
O1017       O  0.32452658  0.64259662  0.76875737    -0.79400
C1018       C  0.41949082  0.88233814  0.88965612     0.88100
C1019       C  0.40774481  0.83701759  0.86955362    -0.52100
C1020       C  0.41917670  0.82925121  0.83538179     0.11100
C1021       C  0.44176313  0.86834999  0.82385978     0.22000
C1022       C  0.45318851  0.87559625  0.88943860    -0.52800
C1023       C  0.46487138  0.86818470  0.85502444     0.11200
C1024       C  0.41342040  0.92485385  0.86241773    -0.52400
C1025       C  0.42538042  0.91812212  0.82813139     0.11700
H1026       H  0.39140656  0.81287683  0.88149905     0.16200
H1027       H  0.45157733  0.86274453  0.79614891     0.02000
H1028       H  0.46649654  0.87603009  0.91430530     0.16500
H1029       H  0.39972642  0.95646700  0.86862260     0.16300
C1030       C  0.28323603  0.89247770  0.53697842     0.88100
C1031       C  0.28846897  0.84416275  0.55785132    -0.52100
C1032       C  0.31722621  0.83618154  0.56717933     0.11100
C1033       C  0.33818616  0.87690607  0.55456145     0.22000
C1034       C  0.29574203  0.93263161  0.56170000    -0.52800
C1035       C  0.32459875  0.92445174  0.57089491     0.11200
C1036       C  0.30385488  0.89018128  0.50397597    -0.52400
C1037       C  0.33281200  0.88110755  0.51259955     0.11700
H1038       H  0.27102131  0.81888190  0.56495547     0.16200
H1039       H  0.36148096  0.86999479  0.56265401     0.02000
H1040       H  0.28303117  0.96438741  0.57114496     0.16500
H1041       H  0.30998502  0.88042265  0.97425722     0.16300
O1042       O  0.12704233  0.98818275  0.90543850    -0.76900
C1043       C  0.04972673  0.89047955  0.92440677     0.84200
O1044       O  0.11306909  0.94411125  0.53908337    -0.78000
O1045       O  0.10042497  0.78516279  0.99468588    -0.79500
O1046       O  0.16448525  0.82270434  0.89115017    -0.79300
O1047       O  0.16853837  0.94631734  0.89256111    -0.77900
Zn1048     Zn  0.10568723  0.94699833  0.94391266     1.55700
O1049       O  0.12258752  0.78454382  0.90552212    -0.79300
Cd1050     Cd  0.16561278  0.88385222  0.92507101     1.59700
Cd1051     Cd  0.13337497  0.88899967  0.51111457     1.59600
O1052       O  0.20380395  0.87880051  0.95734696    -0.79300
O1053       O  0.12877323  0.88728630  0.95553542    -1.89800
Cd1054     Cd  0.10392569  0.82771756  0.94712869     1.59900
O1055       O  0.17761678  0.89687822  0.51908995    -0.79200
O1056       O  0.06111993  0.84875045  0.93276269    -0.77900
C1057       C  0.09793106  0.98136367  0.52923291     0.84700
C1058       C  0.15145706  0.98349562  0.88820484     0.84300
O1059       O  0.06463548  0.92989877  0.92533736    -0.76800
C1060       C  0.14639690  0.78770592  0.88697311     0.85100
O1061       O  0.09986851  0.98895688  0.99005665    -0.76900
C1062       C  0.20792425  0.87967862  0.99210540     0.85300
C1063       C  0.10643061  0.78942526  0.52785076     0.85600
O1064       O  0.12153843  0.82623515  0.53713944    -0.79400
C1065       C  0.08387734  0.63130053  0.63890864     0.88100
C1066       C  0.09364884  0.67354081  0.61372701    -0.52100
C1067       C  0.07847302  0.67702044  0.58118933     0.11100
C1068       C  0.05509247  0.63766228  0.57665145     0.22000
C1069       C  0.05033927  0.63929852  0.64380811    -0.52800
C1070       C  0.03547594  0.64267666  0.61099073     0.11200
C1071       C  0.08614465  0.58503964  0.61472230    -0.52400
C1072       C  0.07207346  0.58898576  0.58147344     0.11700
H1073       H  0.11162709  0.69738401  0.62122003     0.16200
H1074       H  0.04281820  0.64026703  0.55019040     0.02000
H1075       H  0.03913845  0.64149923  0.67016254     0.16500
H1076       H  0.09859752  0.55257303  0.62314201     0.16300
C1077       C  0.21676050  0.63538143  0.78902804     0.88100
C1078       C  0.20597212  0.68072991  0.81033976    -0.52100
C1079       C  0.17656786  0.68008210  0.81819783     0.11100
C1080       C  0.16061324  0.63421598  0.80391827     0.22000
C1081       C  0.20773180  0.59122424  0.81251076    -0.52800
C1082       C  0.17832438  0.59079996  0.82042891     0.11200
C1083       C  0.19717098  0.63352200  0.75484363    -0.52400
C1084       C  0.16749781  0.63239527  0.76210677     0.11700
H1085       H  0.22034199  0.71015564  0.81906845     0.16200
H1086       H  0.13685604  0.63346741  0.81114795     0.02000
H1087       H  0.22319435  0.56333547  0.82244223     0.16500
H1088       H  0.20643711  0.63404331  0.72728968     0.16300
C1089       C  0.13299727  0.61160078  0.66813049    -0.11700
C1090       C  0.10367270  0.62797146  0.67295613     0.10400
C1091       C  0.09516279  0.64504658  0.70810606    -0.11700
C1092       C  0.11559944  0.64593855  0.73727711    -0.11700
C1093       C  0.14489343  0.62937088  0.73210813     0.10400
C1094       C  0.15292592  0.61103703  0.69724644    -0.11700
H1095       H  0.14076063  0.59943580  0.64137219     0.14400
H1096       H  0.07323501  0.65968604  0.71294803     0.14400
H1097       H  0.10857647  0.66112681  0.76342787     0.14400
H1098       H  0.17479749  0.59640155  0.69191673     0.14400
C1099       C  0.15379672  0.74964463  0.86096403    -0.11600
C1100       C  0.16269804  0.71773674  0.84051647    -0.13200
C1101       C  0.16556376  0.55379114  0.84385073    -0.11600
C1102       C  0.15670146  0.52228674  0.86435322    -0.13200
C1103       C  0.10120347  0.75249039  0.55655575    -0.14800
C1104       C  0.08409132  0.71333750  0.55159276    -0.30000
H1105       H  0.11133100  0.75921791  0.58308651     0.14200
H1106       H  0.07324344  0.70804920  0.52523610     0.14800
C1107       C  0.10023574  0.52425333  0.54925497    -0.14800
C1108       C  0.07600882  0.55309502  0.55091241    -0.30000
H1109       H  0.09419492  0.00325125  0.58655870     0.14200
H1110       H  0.05980337  0.55224314  0.52890930     0.14800
C1111       C  0.25260698  0.89984329  0.52536204    -0.11600
C1112       C  0.22820898  0.90071385  0.51234204    -0.13200
C1113       C  0.40665488  0.84547745  0.95170341    -0.11700
C1114       C  0.40588093  0.88682533  0.92813943     0.10400
C1115       C  0.38933998  0.92849339  0.93953937    -0.11700
C1116       C  0.37067083  0.92587422  0.96998970    -0.11700
C1117       C  0.36886387  0.88240428  0.99042235     0.10400
C1118       C  0.38805593  0.84309646  0.98244203    -0.11700
H1119       H  0.41980553  0.81331726  0.94449270     0.14400
H1120       H  0.38933953  0.96267480  0.92459674     0.14400
H1121       H  0.35641445  0.95702324  0.97648819     0.14400
H1122       H  0.39318707  0.89589161  0.51634473     0.14400
C1123       C  0.24827523  0.63593224  0.77951375    -0.11600
C1124       C  0.27314083  0.63598033  0.76763182    -0.13200
C1125       C  0.32667201  0.79396236  0.58836301    -0.11600
C1126       C  0.33458866  0.75999670  0.60750309    -0.13200
C1127       C  0.35052353  0.98778414  0.61508508    -0.11600
C1128       C  0.34023243  0.95757385  0.59465674    -0.13200
C1129       C  0.41417126  0.00192841  0.80363118    -0.14800
C1130       C  0.42180253  0.95442497  0.79747722    -0.30000
H1131       H  0.40314288  0.51680231  0.83108029     0.14200
H1132       H  0.42497601  0.94144117  0.76944360     0.14800
C1133       C  0.41401644  0.78082108  0.77725091    -0.14800
C1134       C  0.40967425  0.78607651  0.81360643    -0.30000
H1135       H  0.42545200  0.80885364  0.76177060     0.14200
H1136       H  0.39731071  0.75819471  0.82821324     0.14800
C1137       C  0.99768271  0.86658352  0.93072778    -0.14800
C1138       C  0.01826395  0.89365116  0.91370575    -0.30000
H1139       H  0.00415395  0.84287492  0.95353107     0.14200
H1140       H  0.01158001  0.92123771  0.89359127     0.14800
C1141       C  0.90670795  0.83895290  0.82336966    -0.11700
C1142       C  0.90831492  0.88116014  0.84590565     0.10400
C1143       C  0.89413740  0.92462187  0.83343645    -0.11700
C1144       C  0.87439358  0.92323316  0.80403659    -0.11700
C1145       C  0.86955685  0.87910939  0.78545356     0.10400
C1146       C  0.88706457  0.83771467  0.79363465    -0.11700
H1147       H  0.91856108  0.80552566  0.83078300     0.14400
H1148       H  0.89696940  0.95946663  0.84712041     0.14400
H1149       H  0.86172274  0.95600978  0.79700493     0.14400
H1150       H  0.88395599  0.80355971  0.77886615     0.14400
C1151       C  0.83617779  0.95274103  0.68159994    -0.11600
C1152       C  0.84693622  0.48038248  0.67125751    -0.13200
C1153       C  0.84838267  0.75437569  0.66695120    -0.11600
C1154       C  0.83963865  0.78689415  0.68683678    -0.13200
C1155       C  0.91191320  0.50444073  0.97676356    -0.14800
C1156       C  0.91464669  0.94658175  0.97825902    -0.30000
H1157       H  0.90729941  0.51595212  0.94875898     0.14200
H1158       H  0.92364467  0.93795563  0.00526872     0.14800
C1159       C  0.91365288  0.77926370  0.99805188    -0.14800
C1160       C  0.91309893  0.78030369  0.96113340    -0.30000
H1161       H  0.89209470  0.73765418  0.44711874     0.14200
H1162       H  0.90403447  0.74923673  0.94631763     0.14800
C1163       C  0.98462576  0.61619507  0.62037157    -0.14800
C1164       C  0.00331392  0.64987629  0.60757648    -0.30000
H1165       H  0.99324554  0.58460453  0.63551461     0.14200
H1166       H  0.99537206  0.67838285  0.58891460     0.14800
C1167       C  0.76660374  0.62327334  0.52881030    -0.11600
C1168       C  0.74196677  0.62433706  0.51635089    -0.13200
C1169       C  0.50150946  0.61569351  0.67536275    -0.14800
C1170       C  0.48101502  0.63235314  0.65165450    -0.30000
H1171       H  0.49468199  0.59883004  0.70109872     0.14200
H1172       H  0.48725818  0.65436531  0.62799765     0.14800
C1173       C  0.60015062  0.58795042  0.58313464    -0.11700
C1174       C  0.59561056  0.63285686  0.60192124     0.10400
C1175       C  0.60754256  0.67579981  0.58636236    -0.11700
C1176       C  0.62717290  0.67265832  0.55690365    -0.11700
C1177       C  0.63438640  0.62699067  0.54151929     0.10400
C1178       C  0.61976559  0.58491661  0.55342569    -0.11700
H1179       H  0.59020774  0.55452987  0.59314930     0.14400
H1180       H  0.60266917  0.71198338  0.59706759     0.14400
H1181       H  0.63782091  0.70564786  0.54718830     0.17200
H1182       H  0.62494107  0.54939486  0.54134608     0.14400
C1183       C  0.73709892  0.87071421  0.77423385    -0.11600
C1184       C  0.76168065  0.87088028  0.76127398    -0.13200
C1185       C  0.65716547  0.51311151  0.91773770    -0.11600
C1186       C  0.66631016  0.54429483  0.93833154    -0.13200
C1187       C  0.65319493  0.73958516  0.91642087    -0.11600
C1188       C  0.66299189  0.70815605  0.93668387    -0.13200
C1189       C  0.60396639  0.51731284  0.72502325    -0.14800
C1190       C  0.58390747  0.55367719  0.72831682    -0.30000
H1191       H  0.61432959  0.00101873  0.69528853     0.14200
H1192       H  0.57137966  0.55721988  0.75372259     0.14800
C1193       C  0.59986908  0.74376848  0.72597610    -0.14800
C1194       C  0.57650244  0.71385472  0.72693789    -0.30000
H1195       H  0.61504498  0.74255370  0.70296616     0.14200
H1196       H  0.56195479  0.71426491  0.75070698     0.14800
C1197       C  0.51748414  0.88693621  0.86504367    -0.14800
C1198       C  0.49680744  0.86062454  0.84773852    -0.30000
H1199       H  0.51085119  0.91528110  0.88458207     0.14200
H1200       H  0.50319530  0.83648002  0.82516531     0.14800
loop_ 
_geom_bond_atom_site_label_1 
_geom_bond_atom_site_label_2 
_geom_bond_distance 
_geom_bond_site_symmetry_2 
_ccdc_geom_bond_type 
O1           C17   1.276       .  A
O1           Zn7   2.035       .  S
C2           O18   1.275       .  A
C2           O15   1.270       .  A
C2          C297   1.464       .  S
O3           C16   1.276       .  A
O3          Cd10   2.077       .  S
O4           C22   1.271       .  A
O4          Cd13   2.060       .  S
O5           C19   1.274       .  A
O5           Cd9   2.079       .  S
O6           C17   1.273       .  A
O6           Cd9   2.065       .  S
Zn7          O18   2.028       .  S
Zn7          O20   2.030       .  S
Zn7          O12   1.957       .  S
O8           C19   1.270       .  A
O8          Cd13   2.051       .  S
Cd9          O11   2.074       .  S
Cd9          O12   1.998       .  S
Cd10         O14   2.090       .  S
Cd10         O23   2.086       .  S
Cd10         O12   1.998       .  S
O11          C21   1.274       .  A
O12         Cd13   1.998       .  S
Cd13         O15   2.048       .  S
O14          C21   1.276       .  A
C16          O20   1.275       .  A
C16         C293   1.477       .  S
C17         C287   1.436       .  S
C19         C885   1.431       .  S
C21         C283   1.442       .  S
C22          O23   1.278       .  A
C22         C889   1.478       .  S
C24          C25   1.538       .  S
C24          C30   1.539       .  S
C24          C28   1.537       .  S
C24         C274   1.532       .  S
C25          H32   1.087       .  S
C25          C26   1.362       .  D
C26          C27   1.546       .  S
C26         C290   1.488       .  S
C27          C31   1.543       .  S
C27          C29   1.543       .  S
C27          H33   1.108       .  S
C28          H34   1.086       .  S
C28          C29   1.371       .  D
C29         C269   1.487       .  S
C30          H35   1.078       .  S
C30          C31   1.366       .  D
C31         C294   1.496       .  S
C36          C37   1.529       .  S
C36          C40   1.531       .  S
C36         C342   1.526       .  S
C36         C568   1.468       .  S
C37          H44   1.087       .  S
C37          C38   1.363       .  D
C38          C39   1.542       .  S
C38         C286   1.440       .  S
C39          C41   1.538       .  S
C39         C343   1.547       .  S
C39          H45   1.109       .  S
C40          H46   1.087       .  S
C40          C41   1.364       .  D
C41         C288   1.442       .  S
C42         C336   1.529   1_554  S
C42          H47   1.087       .  S
C42          C43   1.365       .  D
C43         C277   1.471       .  S
C43         C339   1.537   1_554  S
O48          C64   1.275       .  A
O48         Zn54   2.037       .  S
C49          O65   1.276       .  A
C49          O62   1.274       .  A
C49         C263   1.469       .  S
O50         C363   1.275       .  A
O50        Cd357   2.074       .  S
O51          C69   1.276       .  A
O51         Cd60   2.092       .  S
O52          C66   1.275       .  A
O52         Cd56   2.079       .  S
O53          C64   1.274       .  A
O53         Cd56   2.070       .  S
Zn54         O65   2.020       .  S
Zn54         O67   2.034       .  S
Zn54         O59   1.960       .  S
O55          C66   1.274       .  A
O55         Cd60   2.077       .  S
Cd56         O58   2.084       .  S
Cd56         O59   2.003       .  S
Cd57         O61   2.068       .  S
Cd57        O350   2.060   1_554  S
Cd57        O370   2.060   1_554  S
Cd57         O59   1.992       .  S
O58          C68   1.275       .  A
O59         Cd60   2.015       .  S
Cd60         O62   2.068       .  S
O61          C68   1.272       .  A
C63          O67   1.275       .  A
C63         O350   1.272   1_554  A
C63         C559   1.476   1_554  S
C64         C253   1.439       .  S
C66         C252   1.439   1_545  S
C68         C267   1.438       .  S
C69         O370   1.274   1_554  A
C69         C555   1.476   1_544  S
O70         C369   1.273       .  A
O70        Cd357   2.059       .  S
C71          C72   1.535       .  S
C71          C77   1.534       .  S
C71          C75   1.542       .  S
C71         C242   1.529       .  S
C72          H79   1.083       .  S
C72          C73   1.365       .  D
C73          C74   1.536       .  S
C73         C256   1.490       .  S
C74          C78   1.541       .  S
C74          C76   1.545       .  S
C74          H80   1.109       .  S
C75          H81   1.085       .  S
C75          C76   1.375       .  D
C76         C237   1.483       .  S
C77          H82   1.087       .  S
C77          C78   1.361       .  D
C78         C260   1.485       .  S
C83          C84   1.532       .  S
C83          C89   1.529       .  S
C83          C87   1.533       .  S
C83         C284   1.475       .  S
C84          H91   1.087       .  S
C84          C85   1.364       .  D
C85          C86   1.539       .  S
C85         C251   1.441       .  S
C86          C90   1.542       .  S
C86          C88   1.539       .  S
C86          H92   1.111       .  S
C87          H93   1.087       .  S
C87          C88   1.366       .  D
C88         C254   1.444       .  S
C89          H94   1.086       .  S
C89          C90   1.371       .  D
C90         C245   1.488       .  S
O95         C111   1.274       .  A
O95        Zn101   2.028       .  S
C96         O112   1.274       .  A
C96         O109   1.273       .  A
C96         C226   1.436       .  S
O97         C110   1.269       .  A
O97        Cd104   2.040       .  S
O98         C116   1.275       .  A
O98        Cd107   2.090       .  S
O99         C113   1.277       .  A
O99        Cd103   2.086       .  S
O100        C111   1.277       .  A
O100       Cd103   2.090       .  S
Zn101       O112   2.025       .  S
Zn101       O114   2.035       .  S
Zn101       O106   1.952       .  S
O102        C113   1.274       .  A
O102       Cd107   2.064       .  S
Cd103       O105   2.082       .  S
Cd103       O106   2.014       .  S
Cd104       O108   2.047       .  S
Cd104       O117   2.067       .  S
Cd104       O106   1.993       .  S
O105        C115   1.276       .  A
O106       Cd107   2.002       .  S
Cd107       O109   2.070       .  S
O108        C115   1.271       .  A
C110        O114   1.277       .  A
C110        C233   1.470       .  S
C111        C270   1.478       .  S
C113        C827   1.435   1_545  S
C115        C829   1.470   1_545  S
C116        O117   1.271       .  A
C116        C224   1.441       .  S
C118        C119   1.544       .  S
C118        C124   1.540       .  S
C118        C122   1.530       .  S
C118        C214   1.529       .  S
C119        H126   1.083       .  S
C119        C120   1.371       .  D
C120        C121   1.529       .  S
C120        C234   1.483       .  S
C121        C125   1.533       .  S
C121        C123   1.537       .  S
C121        H127   1.112       .  S
C122        H128   1.086       .  S
C122        C123   1.367       .  D
C123        C298   1.476       .  S
C124        H129   1.079       .  S
C124        C125   1.368       .  D
C125        C230   1.489       .  S
C130        C131   1.533       .  S
C130        C136   1.527       .  S
C130        C134   1.536       .  S
C130        C211   1.470       .  S
C131        H138   1.087       .  S
C131        C132   1.365       .  D
C132        C133   1.538       .  S
C132        C225   1.441       .  S
C133        C137   1.538       .  S
C133        C135   1.538       .  S
C133        H139   1.111       .  S
C134        H140   1.086       .  S
C134        C135   1.367       .  D
C135        C228   1.443       .  S
C136        H441   1.087   1_554  S
C136        C137   1.364       .  D
C137        C517   1.472   1_554  S
H141        C436   1.087       .  S
O142        C158   1.277       .  A
O142       Zn148   2.045       .  S
C143        O159   1.277       .  A
C143        O156   1.277       .  A
C143        C238   1.482       .  S
O144        C157   1.270       .  A
O144       Cd151   2.038       .  S
O145        C463   1.277       .  A
O145       Cd154   2.088       .  S
O146        C160   1.274       .  A
O146       Cd150   2.065       .  S
O147        C158   1.273       .  A
O147       Cd150   2.064       .  S
Zn148       O159   2.042       .  S
Zn148       O161   2.055       .  S
Zn148       O153   1.962       .  S
O149        C160   1.276       .  A
O149       Cd154   2.084       .  S
Cd150       O152   2.086       .  S
Cd150       O153   2.002       .  S
Cd151       O155   2.059       .  S
Cd151       O164   2.050       .  S
Cd151       O453   1.990   1_554  S
O152        C162   1.274       .  A
O153       Cd154   2.008       .  S
O153       Cd451   1.984       .  S
Cd154       O156   2.082       .  S
O155        C462   1.270   1_554  A
C157        O461   1.277   1_554  A
C157        C807   1.470       .  S
C158        C802   1.439       .  S
C160        C199   1.435       .  S
O161        C457   1.277       .  A
C162        O455   1.268       .  A
C162        C512   1.435       .  S
C163        O164   1.271       .  A
C163        O445   1.276   1_554  A
C163        C203   1.473       .  S
C165        C166   1.544       .  S
C165        C171   1.540       .  S
C165        C169   1.531       .  S
C165        C190   1.531       .  S
C166        H173   1.082       .  S
C166        C167   1.370       .  D
C167        C168   1.532       .  S
C167        C204   1.487       .  S
C168        C172   1.534       .  S
C168        C170   1.538       .  S
C168        H174   1.112       .  S
C169        H175   1.086       .  S
C169        C170   1.367       .  D
C170        C264   1.476   1_455  S
C171        H176   1.078       .  S
C171        C172   1.368       .  D
C172        C208   1.490       .  S
C177        C178   1.536       .  S
C177        C183   1.531       .  S
C177        C181   1.535       .  S
C177        C223   1.474       .  S
C178        H185   1.086       .  S
C178        C179   1.366       .  D
C179        C180   1.534       .  S
C179        C200   1.441       .  S
C180        C184   1.535       .  S
C180        C182   1.536       .  S
C180        H186   1.112       .  S
C181        H187   1.087       .  S
C181        C182   1.366       .  D
C182        C201   1.442       .  S
C183        H188   1.087       .  S
C183        C184   1.365       .  D
C184        C193   1.469       .  S
C189        C190   1.412       .  A
C189        C194   1.395       .  A
C189        H195   1.080       .  S
C190        C191   1.411       .  A
C191        C192   1.400       .  A
C191        H196   1.082       .  S
C192        C193   1.399       .  A
C192        H197   1.083       .  S
C193        C194   1.397       .  A
C194        H198   1.084       .  S
C199        C200   1.206       .  T
C201        C202   1.206       .  T
C202        C758   1.436   1_545  S
C203        H205   1.083       .  S
C203        C204   1.343       .  D
C204        H206   1.086       .  S
C207        C757   1.468   1_545  S
C207        H809   1.081       .  S
C207        C208   1.345       .  D
C208        H210   1.086       .  S
H209        C807   1.082       .  S
C211        C212   1.208       .  T
C212        C462   1.438   1_554  S
C213        C214   1.410       .  A
C213        C218   1.398       .  A
C213        H219   1.083       .  S
C214        C215   1.412       .  A
C215        C216   1.395       .  A
C215        H220   1.079       .  S
C216        C217   1.397       .  A
C216        H221   1.084       .  S
C217        C437   1.467       .  S
C217        C218   1.399       .  A
C218        H522   1.083       .  S
H222        C518   1.083       .  S
C223        C224   1.210       .  T
C225        C226   1.206       .  T
C227        C713   1.437       .  S
C227        C228   1.207       .  T
C229        C715   1.468       .  S
C229        H831   1.084       .  S
C229        C230   1.344       .  D
C230        H232   1.086       .  S
H231        C829   1.082       .  S
C233        H235   1.084       .  S
C233        C234   1.340       .  D
C234        H236   1.086       .  S
C237        H239   1.086   1_655  S
C237        C238   1.345   1_655  D
C238        H240   1.087       .  S
C241        C242   1.410       .  A
C241        C246   1.408       .  A
C241        H247   1.082       .  S
C242        C243   1.412       .  A
C243        C244   1.388       .  A
C243        H248   1.080       .  S
C244        C245   1.399       .  A
C244        H249   1.083       .  S
C245        C246   1.407       .  A
C246        H250   1.083       .  S
C251        C852   1.206       .  T
C252        C851   1.208       .  T
C253        C254   1.208       .  T
C255        C369   1.472   1_565  S
C255        H257   1.084   1_565  S
C255        C856   1.345       .  D
C256        H258   1.086       .  S
C256        C855   1.347       .  D
C259        C363   1.478       .  S
C259        H561   1.084       .  S
C259        C260   1.343       .  D
C260        H262   1.087       .  S
H261        C559   1.083       .  S
C263        H265   1.087       .  S
C263        C264   1.341       .  D
C264        H266   1.087       .  S
C267        C268   1.208       .  T
C268        C336   1.471   1_554  S
C269        H271   1.087       .  S
C269        C270   1.344       .  D
C270        H272   1.086       .  S
C273        C274   1.412       .  A
C273        C278   1.394       .  A
C273        H279   1.078       .  S
C274        C275   1.411       .  A
C275        C276   1.401       .  A
C275        H280   1.083       .  S
C276        C277   1.399       .  A
C276        H281   1.083       .  S
C277        C278   1.397       .  A
C278        H282   1.084       .  S
C283        C284   1.210       .  T
C285        C619   1.434   1_545  S
C285        C286   1.205       .  T
C287        C288   1.206       .  T
C289        C622   1.481   1_545  S
C289        H891   1.084       .  S
C289        C290   1.342       .  D
C290        H292   1.087       .  S
H291        C889   1.084       .  S
C293        H295   1.084       .  S
C293        C294   1.352       .  D
C294        H296   1.086       .  S
C297        H299   1.086       .  S
C297        C298   1.340       .  D
C298        H300   1.087       .  S
O301        C317   1.278       .  A
O301       Zn307   2.048       .  S
C302        O318   1.278       .  A
C302        O315   1.274       .  A
C302        C597   1.477       .  S
O303        C316   1.269       .  A
O303       Cd310   2.033       .  S
O304        C322   1.278       .  A
O304       Cd313   2.089       .  S
O305        C319   1.275       .  A
O305       Cd309   2.078       .  S
O306        C317   1.273       .  A
O306       Cd309   2.061       .  S
Zn307       O318   2.046       .  S
Zn307       O320   2.049       .  S
Zn307       O312   1.966       .  S
O308        C319   1.275       .  A
O308       Cd313   2.082       .  S
Cd309       O311   2.091       .  S
Cd309       O312   2.002       .  S
Cd310       O314   2.051       .  S
Cd310       O323   2.030       .  S
Cd310       O312   1.986       .  S
O311        C321   1.275       .  A
O312       Cd313   2.008       .  S
Cd313       O315   2.074       .  S
O314        C321   1.268       .  A
C316        O320   1.276       .  A
C316        C593   1.471       .  S
C317        C587   1.437       .  S
C319       C1185   1.440       .  S
C321        C583   1.436       .  S
C322        O323   1.268       .  A
C322       C1189   1.468       .  S
C324        C325   1.537       .  S
C324        C330   1.537       .  S
C324        C328   1.543       .  S
C324        C574   1.526       .  S
C325        H332   1.085       .  S
C325        C326   1.366       .  D
C326        C327   1.528       .  S
C326        C590   1.483       .  S
C327        C331   1.535       .  S
C327        C329   1.538       .  S
C327        H333   1.112       .  S
C328        H334   1.084       .  S
C328        C329   1.371       .  D
C329        C569   1.475       .  S
C330        H335   1.082       .  S
C330        C331   1.369       .  D
C331        C594   1.492       .  S
C336        C337   1.533       .  S
C336        C340   1.536       .  S
C337        H344   1.087       .  S
C337        C338   1.363       .  D
C338        C339   1.538       .  S
C338        C586   1.441       .  S
C339        C341   1.537       .  S
C339        H345   1.111       .  S
C340        H346   1.086       .  S
C340        C341   1.368       .  D
C341        C588   1.443       .  S
C342        H347   1.084       .  S
C342        C343   1.372       .  D
C343        C577   1.496       .  S
O348        C364   1.273       .  A
O348       Zn354   2.017       .  S
C349        O365   1.274       .  A
C349        O362   1.275       .  A
C349        C563   1.472       .  S
O351        C369   1.276       .  A
O351       Cd360   2.080       .  S
O352        C366   1.273       .  A
O352       Cd356   2.072       .  S
O353        C364   1.274       .  A
O353       Cd356   2.071       .  S
Zn354       O365   2.002       .  S
Zn354       O367   2.016       .  S
Zn354       O359   1.944       .  S
O355        C366   1.275       .  A
O355       Cd360   2.082       .  S
Cd356       O358   2.070       .  S
Cd356       O359   1.997       .  S
Cd357       O361   2.072       .  S
Cd357       O359   2.000       .  S
O358        C368   1.274       .  A
O359       Cd360   2.010       .  S
Cd360       O362   2.076       .  S
O361        C368   1.273       .  A
C363        O367   1.272       .  A
C364        C553   1.434       .  S
C366        C552   1.438   1_545  S
C368        C567   1.435       .  S
C371        C372   1.534       .  S
C371        C377   1.534       .  S
C371        C375   1.540       .  S
C371        C542   1.522       .  S
C372        H379   1.082       .  S
C372        C373   1.365       .  D
C373        C374   1.541       .  S
C373        C556   1.490       .  S
C374        C378   1.537       .  S
C374        C376   1.543       .  S
C374        H380   1.111       .  S
C375        H381   1.084       .  S
C375        C376   1.372       .  D
C376        C537   1.479       .  S
C377        H382   1.084       .  S
C377        C378   1.366       .  D
C378        C560   1.492       .  S
C383        C384   1.534       .  S
C383        C389   1.520       .  S
C383        C387   1.529       .  S
C383        C584   1.469       .  S
C384        H391   1.086       .  S
C384        C385   1.365       .  D
C385        C386   1.538       .  S
C385        C551   1.444       .  S
C386        C390   1.546       .  S
C386        C388   1.542       .  S
C386        H392   1.110       .  S
C387        H393   1.087       .  S
C387        C388   1.365       .  D
C388        C554   1.440       .  S
C389        H394   1.085       .  S
C389        C390   1.370       .  D
C390        C545   1.491       .  S
O395        C411   1.272       .  A
O395       Zn401   2.015       .  S
C396        O412   1.271       .  A
C396        O409   1.274       .  A
C396        C526   1.435       .  S
O397        C410   1.276       .  A
O397       Cd404   2.072       .  S
O398        C416   1.275       .  A
O398       Cd407   2.079       .  S
O399        C413   1.275       .  A
O399       Cd403   2.078       .  S
O400        C411   1.276       .  A
O400       Cd403   2.074       .  S
Zn401       O412   2.010       .  S
Zn401       O414   2.017       .  S
Zn401       O406   1.951       .  S
O402        C413   1.274       .  A
O402       Cd407   2.070       .  S
Cd403       O405   2.081       .  S
Cd403       O406   2.006       .  S
Cd404       O408   2.075       .  S
Cd404       O417   2.085       .  S
Cd404       O406   1.998       .  S
O405        C415   1.275       .  A
O406       Cd407   1.998       .  S
Cd407       O409   2.078       .  S
O408        C415   1.276       .  A
C410        O414   1.272       .  A
C410        C533   1.478       .  S
C411        C570   1.471       .  S
C413       C1127   1.435   1_545  S
C415       C1129   1.477       .  S
C416        O417   1.275       .  A
C416        C524   1.442       .  S
C418        C419   1.535       .  S
C418        C424   1.542       .  S
C418        C422   1.537       .  S
C418        C514   1.532       .  S
C419        H426   1.087       .  S
C419        C420   1.361       .  D
C420        C421   1.544       .  S
C420        C534   1.484       .  S
C421        C425   1.542       .  S
C421        C423   1.541       .  S
C421        H427   1.108       .  S
C422        H428   1.086       .  S
C422        C423   1.370       .  D
C423        C598   1.485       .  S
C424        H429   1.077       .  S
C424        C425   1.368       .  D
C425        C530   1.496       .  S
C430        C431   1.534       .  S
C430        C436   1.528       .  S
C430        C434   1.535       .  S
C430        C511   1.468       .  S
C431        H438   1.087       .  S
C431        C432   1.364       .  D
C432        C433   1.538       .  S
C432        C525   1.441       .  S
C433        C437   1.536       .  S
C433        C435   1.540       .  S
C433        H439   1.111       .  S
C434        H440   1.087       .  S
C434        C435   1.366       .  D
C435        C528   1.445       .  S
C436        C437   1.363       .  D
O442        C458   1.276       .  A
O442       Zn448   2.037       .  S
C443        O459   1.275       .  A
C443        O456   1.276       .  A
C443        C538   1.473       .  S
O444        C457   1.268       .  A
O444       Cd451   2.024       .  S
O445       Cd454   2.082       .  S
O446        C460   1.275       .  A
O446       Cd450   2.075       .  S
O447        C458   1.274       .  A
O447       Cd450   2.070       .  S
Zn448       O459   2.029       .  S
Zn448       O461   2.053       .  S
Zn448       O453   1.966       .  S
O449        C460   1.277       .  A
O449       Cd454   2.094       .  S
Cd450       O452   2.088       .  S
Cd450       O453   2.003       .  S
Cd451       O455   2.050       .  S
Cd451       O464   2.042       .  S
O452        C462   1.275       .  A
O453       Cd454   2.010       .  S
Cd454       O456   2.075       .  S
C457       C1107   1.465       .  S
C458       C1102   1.438       .  S
C460        C499   1.442       .  S
C463        O464   1.269       .  A
C463        C503   1.472       .  S
C465        C466   1.538       .  S
C465        C471   1.537       .  S
C465        C469   1.543       .  S
C465        C490   1.528       .  S
C466        H473   1.084       .  S
C466        C467   1.369       .  D
C467        C468   1.529       .  S
C467        C504   1.485       .  S
C468        C472   1.530       .  S
C468        C470   1.534       .  S
C468        H474   1.112       .  S
C469        H475   1.083       .  S
C469        C470   1.366       .  D
C470        C564   1.468       .  S
C471        H476   1.084       .  S
C471        C472   1.370       .  D
C472        C508   1.485       .  S
C477        C478   1.533       .  S
C477        C483   1.527       .  S
C477        C481   1.533       .  S
C477        C523   1.476       .  S
C478        H485   1.086       .  S
C478        C479   1.366       .  D
C479        C480   1.541       .  S
C479        C500   1.448       .  S
C480        C484   1.553       .  S
C480        C482   1.539       .  S
C480        H486   1.108       .  S
C481        H487   1.087       .  S
C481        C482   1.365       .  D
C482        C501   1.447       .  S
C483        H488   1.083       .  S
C483        C484   1.373       .  D
C484        C493   1.503       .  S
C489        C490   1.405       .  A
C489        C494   1.391       .  A
C489        H495   1.083       .  S
C490        C491   1.409       .  A
C491        C492   1.406       .  A
C491        H496   1.079       .  S
C492        C493   1.410       .  A
C492        H497   1.080       .  S
C493        C494   1.409       .  A
C494        H498   1.079       .  S
C499        C500   1.210       .  T
C501        C502   1.209       .  T
C502       C1058   1.441   1_545  S
C503        H505   1.084       .  S
C503        C504   1.341       .  D
C504        H506   1.086       .  S
C507       C1057   1.467   1_545  S
C507       H1109   1.084       .  S
C507        C508   1.339       .  D
C508        H510   1.086       .  S
H509       C1107   1.084       .  S
C511        C512   1.206       .  T
C513        C514   1.413       .  A
C513        C518   1.401       .  A
C513        H519   1.083       .  S
C514        C515   1.411       .  A
C515        C516   1.393       .  A
C515        H520   1.076       .  S
C516        C517   1.398       .  A
C516        H521   1.084       .  S
C517        C518   1.399       .  A
C523        C524   1.210       .  T
C525        C526   1.206       .  T
C527       C1013   1.439       .  S
C527        C528   1.208       .  T
C529       C1015   1.478       .  S
C529       H1131   1.084       .  S
C529        C530   1.351       .  D
C530        H532   1.086       .  S
H531       C1129   1.084       .  S
C533        H535   1.084       .  S
C533        C534   1.342       .  D
C534        H536   1.087       .  S
C537        H539   1.087   1_655  S
C537        C538   1.343   1_655  D
C538        H540   1.086       .  S
C541        C542   1.410       .  A
C541        C546   1.409       .  A
C541        H547   1.081       .  S
C542        C543   1.405       .  A
C543        C544   1.381       .  A
C543        H548   1.083       .  S
C544        C545   1.403       .  A
C544        H549   1.081       .  S
C545        C546   1.409       .  A
C546        H550   1.082       .  S
C551       C1152   1.207       .  T
C552       C1151   1.207       .  T
C553        C554   1.205       .  T
C555        H557   1.081       .  S
C555       C1156   1.350       .  D
C556        H558   1.086   1_556  S
C556       C1155   1.349       .  D
C559        C560   1.348       .  D
C560        H562   1.086   1_556  S
C563        H565   1.087       .  S
C563        C564   1.342   1_655  D
C564        H566   1.086   1_455  S
C567        C568   1.206       .  T
C569        H571   1.087       .  S
C569        C570   1.340       .  D
C570        H572   1.086       .  S
C573        C574   1.406       .  A
C573        C578   1.387       .  A
C573        H579   1.083       .  S
C574        C575   1.410       .  A
C575        C576   1.408       .  A
C575        H580   1.080       .  S
C576        C577   1.410       .  A
C576        H581   1.081       .  S
C577        C578   1.404       .  A
C578        H582   1.080       .  S
C583        C584   1.207       .  T
C585        C919   1.435   1_545  S
C585        C586   1.206       .  T
C587        C588   1.207       .  T
C589        C922   1.470   1_545  S
C589       H1191   1.084       .  S
C589        C590   1.341       .  D
C590        H592   1.086       .  S
H591       C1189   1.083       .  S
C593        H595   1.082       .  S
C593        C594   1.344       .  D
C594        H596   1.086       .  S
C597        H599   1.086       .  S
C597        C598   1.344       .  D
C598        H600   1.087       .  S
O601        C617   1.276       .  A
O601       Zn607   2.039       .  S
C602        O618   1.277       .  A
C602        O615   1.270       .  A
C602        C897   1.464       .  S
O603        C616   1.276       .  A
O603       Cd610   2.073       .  S
O604        C622   1.272       .  A
O604       Cd613   2.067       .  S
O605        C619   1.274       .  A
O605       Cd609   2.084       .  S
O606        C617   1.274       .  A
O606       Cd609   2.070       .  S
Zn607       O618   2.027       .  S
Zn607       O620   2.047       .  S
Zn607       O612   1.958       .  S
O608        C619   1.270       .  A
O608       Cd613   2.054       .  S
Cd609       O611   2.069       .  S
Cd609       O612   1.999       .  S
Cd610       O614   2.080       .  S
Cd610       O623   2.086       .  S
Cd610       O612   1.999       .  S
O611        C621   1.274       .  A
O612       Cd613   2.001       .  S
Cd613       O615   2.048       .  S
O614        C621   1.275       .  A
C616        O620   1.276       .  A
C616        C893   1.480       .  S
C617        C887   1.439       .  S
C621        C883   1.436       .  S
C622        O623   1.278       .  A
C624        C625   1.530       .  S
C624        C630   1.537       .  S
C624        C628   1.544       .  S
C624        C874   1.527       .  S
C625        H632   1.087       .  S
C625        C626   1.358       .  D
C626        C627   1.544       .  S
C626        C890   1.485       .  S
C627        C631   1.545       .  S
C627        C629   1.544       .  S
C627        H633   1.108       .  S
C628        H634   1.085       .  S
C628        C629   1.375       .  D
C629        C869   1.485       .  S
C630        H635   1.082       .  S
C630        C631   1.366       .  D
C631        C894   1.499       .  S
C636        C637   1.531       .  S
C636        C942   1.529       .  S
C636        C640   1.536       .  S
C636       C1168   1.467       .  S
C637        H644   1.087       .  S
C637        C638   1.362       .  D
C638        C639   1.537       .  S
C638        C886   1.437       .  S
C639        C943   1.535       .  S
C639        C641   1.539       .  S
C639        H645   1.111       .  S
C640        H646   1.086       .  S
C640        C641   1.367       .  D
C641        C888   1.445       .  S
C642        C936   1.527   1_554  S
C642        H647   1.086       .  S
C642        C643   1.371       .  D
C643        C877   1.491       .  S
C643        C939   1.544   1_554  S
O648        C664   1.273       .  A
O648       Zn654   2.016       .  S
C649        O665   1.273       .  A
C649        O662   1.273       .  A
C649        C863   1.470       .  S
O650        C963   1.271       .  A
O650       Cd957   2.055       .  S
O651        C669   1.275       .  A
O651       Cd660   2.071       .  S
O652        C666   1.274       .  A
O652       Cd656   2.076       .  S
O653        C664   1.274       .  A
O653       Cd656   2.071       .  S
Zn654       O665   2.012       .  S
Zn654       O667   2.007       .  S
Zn654       O659   1.947       .  S
O655        C666   1.273       .  A
O655       Cd660   2.069       .  S
Cd656       O658   2.081       .  S
Cd656       O659   1.998       .  S
Cd657       O950   2.081       .  S
Cd657       O661   2.091       .  S
Cd657       O970   2.067   1_554  S
Cd657       O659   2.001       .  S
O658        C668   1.275       .  A
O659       Cd660   2.009       .  S
Cd660       O662   2.070       .  S
O661        C668   1.276       .  A
C663        O950   1.277       .  A
C663        O667   1.270       .  A
C663       C1159   1.478   1_554  S
C664        C853   1.433       .  S
C666        C852   1.435       .  S
C668        C867   1.444       .  S
C669        O970   1.275   1_554  A
C669       C1155   1.472   1_554  S
O670        C969   1.272       .  A
O670       Cd957   2.043       .  S
C671        C672   1.536       .  S
C671        C677   1.538       .  S
C671        C675   1.545       .  S
C671        C842   1.527       .  S
C672        H679   1.084       .  S
C672        C673   1.366       .  D
C673        C674   1.536       .  S
C673        C856   1.487       .  S
C674        C678   1.533       .  S
C674        C676   1.536       .  S
C674        H680   1.112       .  S
C675        H681   1.084       .  S
C675        C676   1.370       .  D
C676        C837   1.474       .  S
C677        H682   1.085       .  S
C677        C678   1.368       .  D
C678        C860   1.489       .  S
C683        C684   1.531       .  S
C683        C689   1.526       .  S
C683        C687   1.528       .  S
C683        C884   1.469       .  S
C684        H691   1.087       .  S
C684        C685   1.363       .  D
C685        C686   1.540       .  S
C685        C851   1.444       .  S
C686        C690   1.551       .  S
C686        C688   1.540       .  S
C686        H692   1.109       .  S
C687        H693   1.087       .  S
C687        C688   1.363       .  D
C688        C854   1.439       .  S
C689        H694   1.083       .  S
C689        C690   1.374       .  D
C690        C845   1.502       .  S
O695        C711   1.274       .  A
O695       Zn701   2.027       .  S
C696        O712   1.275       .  A
C696        O709   1.274       .  A
C696        C826   1.440       .  S
O697        C710   1.268       .  A
O697       Cd704   2.024       .  S
O698        C716   1.277       .  A
O698       Cd707   2.101       .  S
O699        C713   1.278       .  A
O699       Cd703   2.088       .  S
O700        C711   1.277       .  A
O700       Cd703   2.091       .  S
Zn701       O712   2.034       .  S
Zn701       O714   2.036       .  S
Zn701       O706   1.953       .  S
O702        C713   1.276       .  A
O702       Cd707   2.071       .  S
Cd703       O705   2.092       .  S
Cd703       O706   2.014       .  S
Cd704       O708   2.035       .  S
Cd704       O717   2.057       .  S
Cd704       O706   1.983       .  S
O705        C715   1.276       .  A
O706       Cd707   2.000       .  S
Cd707       O709   2.076       .  S
O708        C715   1.269       .  A
C710        O714   1.277       .  A
C710        C833   1.463       .  S
C711        C870   1.479       .  S
C716        O717   1.269       .  A
C716        C824   1.442       .  S
C718        C719   1.538       .  S
C718        C724   1.531       .  S
C718        C722   1.540       .  S
C718        C814   1.521       .  S
C719        H726   1.084       .  S
C719        C720   1.365       .  D
C720        C721   1.525       .  S
C720        C834   1.480       .  S
C721        C725   1.534       .  S
C721        C723   1.538       .  S
C721        H727   1.112       .  S
C722        H728   1.084       .  S
C722        C723   1.373       .  D
C723        C898   1.473       .  S
C724        H729   1.083       .  S
C724        C725   1.367       .  D
C725        C830   1.489       .  S
C730        C731   1.536       .  S
C730        C736   1.528       .  S
C730        C734   1.536       .  S
C730        C811   1.474       .  S
C731        H738   1.086       .  S
C731        C732   1.367       .  D
C732        C733   1.538       .  S
C732        C825   1.446       .  S
C733        C737   1.537       .  S
C733        C735   1.536       .  S
C733        H739   1.111       .  S
C734        H740   1.086       .  S
C734        C735   1.366       .  D
C735        C828   1.441       .  S
C736       H1041   1.087   1_554  S
C736        C737   1.365       .  D
C737       C1117   1.472   1_554  S
H741       C1036   1.085       .  S
O742        C758   1.276       .  A
O742       Zn748   2.036       .  S
C743        O759   1.275       .  A
C743        O756   1.277       .  A
C743        C838   1.476       .  S
O744        C757   1.271       .  A
O744       Cd751   2.039       .  S
O745       C1063   1.277       .  A
O745       Cd754   2.089       .  S
O746        C760   1.275       .  A
O746       Cd750   2.074       .  S
O747        C758   1.272       .  A
O747       Cd750   2.062       .  S
Zn748       O759   2.029       .  S
Zn748       O761   2.053       .  S
Zn748       O753   1.959       .  S
O749        C760   1.276       .  A
O749       Cd754   2.086       .  S
Cd750       O752   2.084       .  S
Cd750       O753   1.997       .  S
Cd751       O755   2.065       .  S
Cd751       O764   2.054       .  S
Cd751      O1053   1.992   1_554  S
O752        C762   1.275       .  A
O753      Cd1051   1.982       .  S
O753       Cd754   2.006       .  S
Cd754       O756   2.073       .  S
O755       C1062   1.271   1_554  A
C757       O1061   1.276   1_554  A
C760        C799   1.440       .  S
O761       C1057   1.278       .  A
C762       O1055   1.267       .  A
C762       C1112   1.430       .  S
C763       O1045   1.276   1_554  A
C763        O764   1.271       .  A
C763        C803   1.474       .  S
C765        C766   1.537       .  S
C765        C771   1.536       .  S
C765        C769   1.538       .  S
C765        C790   1.524       .  S
C766        H773   1.084       .  S
C766        C767   1.368       .  D
C767        C768   1.532       .  S
C767        C804   1.489       .  S
C768        C772   1.537       .  S
C768        C770   1.542       .  S
C768        H774   1.111       .  S
C769        H775   1.084       .  S
C769        C770   1.369       .  D
C770        C864   1.473       .  S
C771        H776   1.083       .  S
C771        C772   1.368       .  D
C772        C808   1.493       .  S
C777        C778   1.533       .  S
C777        C783   1.521       .  S
C777        C781   1.536       .  S
C777        C823   1.474       .  S
C778        H785   1.086       .  S
C778        C779   1.368       .  D
C779        C780   1.543       .  S
C779        C800   1.446       .  S
C780        C784   1.547       .  S
C780        C782   1.537       .  S
C780        H786   1.110       .  S
C781        H787   1.086       .  S
C781        C782   1.366       .  D
C782        C801   1.445       .  S
C783        H788   1.085       .  S
C783        C784   1.369       .  D
C784        C793   1.494       .  S
C789        C790   1.405       .  A
C789        C794   1.385       .  A
C789        H795   1.083       .  S
C790        C791   1.410       .  A
C791        C792   1.408       .  A
C791        H796   1.080       .  S
C792        C793   1.408       .  A
C792        H797   1.082       .  S
C793        C794   1.405       .  A
C794        H798   1.081       .  S
C799        C800   1.208       .  T
C801        C802   1.208       .  T
C803        H805   1.083       .  S
C803        C804   1.344       .  D
C804        H806   1.086       .  S
C807        C808   1.346       .  D
C808        H810   1.086       .  S
C811        C812   1.210       .  T
C812       C1062   1.442   1_554  S
C813        C814   1.410       .  A
C813        C818   1.408       .  A
C813        H819   1.081       .  S
C814        C815   1.405       .  A
C815        C816   1.382       .  A
C815        H820   1.083       .  S
C816        C817   1.403       .  A
C816        H821   1.081       .  S
C817       C1037   1.490       .  S
C817        C818   1.408       .  A
C818       H1122   1.082       .  S
H822       C1118   1.083       .  S
C823        C824   1.210       .  T
C825        C826   1.208       .  T
C827        C828   1.206       .  T
C829        C830   1.345       .  D
C830        H832   1.086       .  S
C833        H835   1.084       .  S
C833        C834   1.338       .  D
C834        H836   1.086       .  S
C837        H839   1.086   1_655  S
C837        C838   1.342   1_655  D
C838        H840   1.087       .  S
C841        C842   1.409       .  A
C841        C846   1.408       .  A
C841        H847   1.079       .  S
C842        C843   1.405       .  A
C843        C844   1.388       .  A
C843        H848   1.083       .  S
C844        C845   1.407       .  A
C844        H849   1.079       .  S
C845        C846   1.411       .  A
C846        H850   1.080       .  S
C853        C854   1.204       .  T
C855        C969   1.467       .  S
C855        H857   1.085       .  S
C856        H858   1.086       .  S
C859        C963   1.476       .  S
C859       H1161   1.084       .  S
C859        C860   1.345       .  D
C860        H862   1.086       .  S
H861       C1159   1.085   1_554  S
C863        H865   1.087       .  S
C863        C864   1.342   1_655  D
C864        H866   1.087   1_455  S
C867        C868   1.211       .  T
C868        C936   1.477   1_554  S
C869        H871   1.087       .  S
C869        C870   1.344       .  D
C870        H872   1.087       .  S
C873        C874   1.409       .  A
C873        C878   1.387       .  A
C873        H879   1.081       .  S
C874        C875   1.411       .  A
C875        C876   1.408       .  A
C875        H880   1.081       .  S
C876        C877   1.408       .  A
C876        H881   1.082       .  S
C877        C878   1.401       .  A
C878        H882   1.082       .  S
C883        C884   1.206       .  T
C885        C886   1.203       .  T
C887        C888   1.208       .  T
C889        C890   1.340       .  D
C890        H892   1.087       .  S
C893        H895   1.083       .  S
C893        C894   1.352       .  D
C894        H896   1.086       .  S
C897        H899   1.086       .  S
C897        C898   1.338       .  D
C898        H900   1.088       .  S
O901        C917   1.278       .  A
O901       Zn907   2.047       .  S
C902        O918   1.277       .  A
C902        O915   1.274       .  A
C902       C1197   1.475       .  S
O903        C916   1.270       .  A
O903       Cd910   2.040       .  S
O904        C922   1.276       .  A
O904       Cd913   2.080       .  S
O905        C919   1.274       .  A
O905       Cd909   2.076       .  S
O906        C917   1.273       .  A
O906       Cd909   2.061       .  S
Zn907       O918   2.040       .  S
Zn907       O920   2.042       .  S
Zn907       O912   1.968       .  S
O908        C919   1.273       .  A
O908       Cd913   2.069       .  S
Cd909       O911   2.093       .  S
Cd909       O912   2.004       .  S
Cd910       O914   2.065       .  S
Cd910       O923   2.047       .  S
Cd910       O912   1.990       .  S
O911        C921   1.275       .  A
O912       Cd913   2.005       .  S
Cd913       O915   2.072       .  S
O914        C921   1.271       .  A
C916        O920   1.275       .  A
C916       C1193   1.468       .  S
C917       C1187   1.437       .  S
C921       C1183   1.442       .  S
C922        O923   1.271       .  A
C924        C925   1.544       .  S
C924        C930   1.540       .  S
C924        C928   1.529       .  S
C924       C1174   1.528       .  S
C925        H932   1.083       .  S
C925        C926   1.372       .  D
C926        C927   1.528       .  S
C926       C1190   1.484       .  S
C927        C931   1.533       .  S
C927        C929   1.539       .  S
C927        H933   1.112       .  S
C928        H934   1.086       .  S
C928        C929   1.366       .  D
C929       C1169   1.473       .  S
C930        H935   1.077       .  S
C930        C931   1.368       .  D
C931       C1194   1.491       .  S
C936        C937   1.533       .  S
C936        C940   1.535       .  S
C937        H944   1.086       .  S
C937        C938   1.367       .  D
C938        C939   1.541       .  S
C938       C1186   1.445       .  S
C939        C941   1.536       .  S
C939        H945   1.111       .  S
C940        H946   1.086       .  S
C940        C941   1.366       .  D
C941       C1188   1.443       .  S
C942        H947   1.087       .  S
C942        C943   1.364       .  D
C943       C1177   1.466       .  S
O948        C964   1.275       .  A
O948       Zn954   2.030       .  S
C949        O965   1.277       .  A
C949        O962   1.274       .  A
C949       C1163   1.474       .  S
O951        C969   1.276       .  A
O951       Cd960   2.090       .  S
O952        C966   1.274       .  A
O952       Cd956   2.072       .  S
O953        C964   1.272       .  A
O953       Cd956   2.056       .  S
Zn954       O965   2.034       .  S
Zn954       O967   2.043       .  S
Zn954       O959   1.956       .  S
O955        C966   1.275       .  A
O955       Cd960   2.081       .  S
Cd956       O958   2.078       .  S
Cd956       O959   2.001       .  S
Cd957       O961   2.059       .  S
Cd957       O959   1.986       .  S
O958        C968   1.273       .  A
O959       Cd960   2.012       .  S
Cd960       O962   2.067       .  S
O961        C968   1.270       .  A
C963        O967   1.276       .  A
C964       C1153   1.432       .  S
C966       C1152   1.438       .  S
C968       C1167   1.434       .  S
C971        C972   1.542       .  S
C971        C977   1.537       .  S
C971        C975   1.535       .  S
C971       C1142   1.532       .  S
C972        H979   1.076       .  S
C972        C973   1.369       .  D
C973        C974   1.541       .  S
C973       C1156   1.498       .  S
C974        C978   1.544       .  S
C974        C976   1.545       .  S
C974        H980   1.109       .  S
C975        H981   1.086       .  S
C975        C976   1.370       .  D
C976       C1137   1.487       .  S
C977        H982   1.087       .  S
C977        C978   1.359       .  D
C978       C1160   1.482       .  S
C983        C984   1.537       .  S
C983        C989   1.531       .  S
C983        C987   1.535       .  S
C983       C1184   1.475       .  S
C984        H991   1.086       .  S
C984        C985   1.367       .  D
C985        C986   1.536       .  S
C985       C1151   1.444       .  S
C986        C990   1.533       .  S
C986        C988   1.533       .  S
C986        H992   1.112       .  S
C987        H993   1.087       .  S
C987        C988   1.365       .  D
C988       C1154   1.438       .  S
C989        H994   1.087       .  S
C989        C990   1.366       .  D
C990       C1145   1.469       .  S
O995       C1011   1.271       .  A
O995      Zn1001   2.003       .  S
C996       O1012   1.271       .  A
C996       O1009   1.274       .  A
C996       C1126   1.435       .  S
O997       C1010   1.277       .  A
O997      Cd1004   2.079       .  S
O998       C1016   1.275       .  A
O998      Cd1007   2.073       .  S
O999       C1013   1.275       .  A
O999      Cd1003   2.080       .  S
O1000      C1011   1.275       .  A
O1000     Cd1003   2.066       .  S
Zn1001     O1012   2.005       .  S
Zn1001     O1014   2.017       .  S
Zn1001     O1006   1.949       .  S
O1002      C1013   1.275       .  A
O1002     Cd1007   2.079       .  S
Cd1003     O1005   2.081       .  S
Cd1003     O1006   2.003       .  S
Cd1004     O1008   2.076       .  S
Cd1004     O1017   2.080       .  S
Cd1004     O1006   1.998       .  S
O1005      C1015   1.275       .  A
O1006     Cd1007   1.998       .  S
Cd1007     O1009   2.083       .  S
O1008      C1015   1.276       .  A
C1010      O1014   1.272       .  A
C1010      C1133   1.481       .  S
C1011      C1170   1.464       .  S
C1016      O1017   1.275       .  A
C1016      C1124   1.437       .  S
C1018      C1019   1.534       .  S
C1018      C1024   1.542       .  S
C1018      C1022   1.537       .  S
C1018      C1114   1.531       .  S
C1019      H1026   1.087       .  S
C1019      C1020   1.359       .  D
C1020      C1021   1.545       .  S
C1020      C1134   1.485       .  S
C1021      C1025   1.542       .  S
C1021      C1023   1.542       .  S
C1021      H1027   1.109       .  S
C1022      H1028   1.086       .  S
C1022      C1023   1.370       .  D
C1023      C1198   1.484       .  S
C1024      H1029   1.077       .  S
C1024      C1025   1.368       .  D
C1025      C1130   1.494       .  S
C1030      C1031   1.531       .  S
C1030      C1036   1.520       .  S
C1030      C1034   1.529       .  S
C1030      C1111   1.463       .  S
C1031      H1038   1.087       .  S
C1031      C1032   1.362       .  D
C1032      C1033   1.539       .  S
C1032      C1125   1.441       .  S
C1033      C1037   1.546       .  S
C1033      C1035   1.542       .  S
C1033      H1039   1.110       .  S
C1034      H1040   1.087       .  S
C1034      C1035   1.366       .  D
C1035      C1128   1.441       .  S
C1036      C1037   1.369       .  D
O1042      C1058   1.276       .  A
O1042     Zn1048   2.042       .  S
C1043      O1059   1.276       .  A
C1043      O1056   1.276       .  A
C1043      C1138   1.480       .  S
O1044      C1057   1.266       .  A
O1044     Cd1051   2.021       .  S
O1045     Cd1054   2.084       .  S
O1046      C1060   1.275       .  A
O1046     Cd1050   2.070       .  S
O1047      C1058   1.274       .  A
O1047     Cd1050   2.073       .  S
Zn1048     O1059   2.041       .  S
Zn1048     O1061   2.041       .  S
Zn1048     O1053   1.964       .  S
O1049      C1060   1.276       .  A
O1049     Cd1054   2.084       .  S
Cd1050     O1052   2.094       .  S
Cd1050     O1053   2.004       .  S
Cd1051     O1055   2.042       .  S
Cd1051     O1064   2.029       .  S
O1052      C1062   1.275       .  A
O1053     Cd1054   2.010       .  S
Cd1054     O1056   2.082       .  S
C1060      C1099   1.437       .  S
C1063      O1064   1.267       .  A
C1063      C1103   1.468       .  S
C1065      C1066   1.538       .  S
C1065      C1071   1.536       .  S
C1065      C1069   1.544       .  S
C1065      C1090   1.529       .  S
C1066      H1073   1.084       .  S
C1066      C1067   1.369       .  D
C1067      C1068   1.527       .  S
C1067      C1104   1.483       .  S
C1068      C1072   1.531       .  S
C1068      C1070   1.536       .  S
C1068      H1074   1.112       .  S
C1069      H1075   1.084       .  S
C1069      C1070   1.371       .  D
C1070      C1164   1.474       .  S
C1071      H1076   1.085       .  S
C1071      C1072   1.368       .  D
C1072      C1108   1.486       .  S
C1077      C1078   1.530       .  S
C1077      C1083   1.527       .  S
C1077      C1081   1.532       .  S
C1077      C1123   1.471       .  S
C1078      H1085   1.087       .  S
C1078      C1079   1.364       .  D
C1079      C1080   1.541       .  S
C1079      C1100   1.443       .  S
C1080      C1084   1.550       .  S
C1080      C1082   1.539       .  S
C1080      H1086   1.109       .  S
C1081      H1087   1.087       .  S
C1081      C1082   1.365       .  D
C1082      C1101   1.444       .  S
C1083      H1088   1.085       .  S
C1083      C1084   1.372       .  D
C1084      C1093   1.499       .  S
C1089      C1090   1.407       .  A
C1089      C1094   1.390       .  A
C1089      H1095   1.083       .  S
C1090      C1091   1.409       .  A
C1091      C1092   1.408       .  A
C1091      H1096   1.080       .  S
C1092      C1093   1.409       .  A
C1092      H1097   1.081       .  S
C1093      C1094   1.406       .  A
C1094      H1098   1.081       .  S
C1099      C1100   1.207       .  T
C1101      C1102   1.208       .  T
C1103      H1105   1.084       .  S
C1103      C1104   1.339       .  D
C1104      H1106   1.086       .  S
C1107      C1108   1.342       .  D
C1108      H1110   1.086       .  S
C1111      C1112   1.203       .  T
C1113      C1114   1.412       .  A
C1113      C1118   1.400       .  A
C1113      H1119   1.083       .  S
C1114      C1115   1.411       .  A
C1115      C1116   1.394       .  A
C1115      H1120   1.076       .  S
C1116      C1117   1.398       .  A
C1116      H1121   1.084       .  S
C1117      C1118   1.399       .  A
C1123      C1124   1.207       .  T
C1125      C1126   1.206       .  T
C1127      C1128   1.206       .  T
C1129      C1130   1.351   1_545  D
C1130      H1132   1.086       .  S
C1133      H1135   1.085       .  S
C1133      C1134   1.341       .  D
C1134      H1136   1.087       .  S
C1137      H1139   1.086   1_655  S
C1137      C1138   1.347   1_655  D
C1138      H1140   1.086       .  S
C1141      C1142   1.412       .  A
C1141      C1146   1.400       .  A
C1141      H1147   1.083       .  S
C1142      C1143   1.411       .  A
C1143      C1144   1.394       .  A
C1143      H1148   1.079       .  S
C1144      C1145   1.397       .  A
C1144      H1149   1.084       .  S
C1145      C1146   1.399       .  A
C1146      H1150   1.083       .  S
C1153      C1154   1.204       .  T
C1155      H1157   1.083       .  S
C1156      H1158   1.086   1_556  S
C1159      C1160   1.340       .  D
C1160      H1162   1.087       .  S
C1163      H1165   1.087       .  S
C1163      C1164   1.340   1_655  D
C1164      H1166   1.086   1_455  S
C1167      C1168   1.205       .  T
C1169      H1171   1.087       .  S
C1169      C1170   1.340       .  D
C1170      H1172   1.086       .  S
C1173      C1174   1.411       .  A
C1173      C1178   1.399       .  A
C1173      H1179   1.083       .  S
C1174      C1175   1.412       .  A
C1175      C1176   1.393       .  A
C1175      H1180   1.078       .  S
C1176      C1177   1.396       .  A
C1176      H1181   1.084       .  S
C1177      C1178   1.399       .  A
C1178      H1182   1.083       .  S
C1183      C1184   1.210       .  T
C1185      C1186   1.208       .  T
C1187      C1188   1.207       .  T
C1189      C1190   1.339       .  D
C1190      H1192   1.086       .  S
C1193      H1195   1.082       .  S
C1193      C1194   1.346       .  D
C1194      H1196   1.086       .  S
C1197      H1199   1.086       .  S
C1197      C1198   1.344       .  D
C1198      H1200   1.086       .  S
