geometry optimzed in LAMMPS
_audit_creation_date              2020-11-30 
_audit_creation_method            'lammps2cif' 
_symmetry_space_group_name_H-M    'P1' 
_symmetry_Int_Tables_number       1 
_symmetry_cell_setting            triclinic 
loop_ 
_symmetry_equiv_pos_as_xyz 
  x,y,z 
_cell_length_a                    39.17307733 
_cell_length_b                    36.78715520725677 
_cell_length_c                    57.7077279667332 
_cell_angle_alpha                 90.1255437845842 
_cell_angle_beta                  90.24360650334219 
_cell_angle_gamma                 126.66679247759703 
loop_ 
_atom_site_label 
_atom_site_type_symbol 
_atom_site_fract_x 
_atom_site_fract_y 
_atom_site_fract_z 
_atom_site_charge 
In1        In  0.47575114  0.31934812  0.32751190     1.36900
C2          C  0.47380982  0.29710836  0.28197616     0.76800
O3          O  0.40922871  0.29893397  0.32432282    -0.61600
O4          O  0.46277687  0.36914580  0.32540700    -0.52500
C5          C  0.98064280  0.33120480  0.37544359     0.69500
O6          O  0.98017113  0.30569131  0.36019186    -0.47400
C7          C  0.06500211  0.41288941  0.32960432     0.74200
O8          O  0.44673241  0.26645155  0.29589824    -0.59300
O9          O  0.03689833  0.41928421  0.32770759    -0.49300
O10         O  0.50130918  0.33351082  0.29208218    -0.55700
C11         C  0.42295608  0.34007174  0.32446418     0.84400
O12         O  0.97911477  0.36176164  0.36718633    -0.57600
O13         O  0.05154965  0.37219020  0.33261898    -0.60900
In14       In  0.48210812  0.32161005  0.21043762     1.36900
C15         C  0.47550262  0.29738865  0.25593414     0.76800
O16         O  0.05698776  0.37535071  0.21093350    -0.61600
O17         O  0.04222220  0.42271826  0.21119099    -0.52500
C18         C  0.97828577  0.32278224  0.16778442     0.69500
O19         O  0.50443214  0.30302809  0.17907383    -0.47400
C20         C  0.43206368  0.34612802  0.21161696     0.74200
O21         O  0.44988509  0.26735905  0.24114221    -0.59300
O22         O  0.47202363  0.37396542  0.21223288    -0.49300
O23         O  0.50446021  0.33383362  0.24667677    -0.55700
C24         C  0.07052193  0.41638114  0.21146347     0.84400
O25         O  0.96022421  0.33850497  0.17641012    -0.57600
O26         O  0.41695032  0.30464945  0.21058993    -0.60900
In27       In  0.19162384  0.02891228  0.21507837     1.36900
C28         C  0.22015038  0.02667063  0.25749901     0.76800
O29         O  0.22633920  0.10375195  0.21288558    -0.61600
O30         O  0.16125887  0.06081245  0.22419420    -0.52500
C31         C  0.19838127  0.03598318  0.16852700     0.69500
O32         O  0.22708228  0.03815952  0.18056177    -0.47400
C33         C  0.11543160  0.45455832  0.21330867     0.74200
O34         O  0.23531412  0.06300985  0.24666801    -0.59300
O35         O  0.12362574  0.99028463  0.22259513    -0.49300
O36         O  0.19852503  0.99191260  0.24472802    -0.55700
C37         C  0.19280630  0.09969334  0.21797746     0.84400
O38         O  0.16906721  0.03035517  0.18049815    -0.57600
O39         O  0.14545181  0.45132818  0.21010303    -0.60900
In40       In  0.18628894  0.02230909  0.32546657     1.36900
C41         C  0.21832463  0.02478930  0.28341736     0.76800
O42         O  0.14058328  0.45256131  0.33469040    -0.61600
O43         O  0.11832440  0.98311365  0.31921811    -0.52500
C44         C  0.19320989  0.03015590  0.37184109     0.69500
O45         O  0.22164772  0.03195182  0.35993507    -0.47400
C46         C  0.18497022  0.09115027  0.32161089     0.74200
O47         O  0.23287973  0.05963617  0.29566375    -0.59300
O48         O  0.15398129  0.05184500  0.31522560    -0.49300
O49         O  0.19438904  0.98839599  0.29455418    -0.55700
C50         C  0.10929109  0.45130233  0.32736313     0.84400
O51         O  0.16418749  0.02512227  0.35973180    -0.57600
O52         O  0.21850983  0.09607150  0.32786709    -0.60900
In53       In  0.17075259  0.18994524  0.32564631     1.36900
C54         C  0.18314659  0.20317736  0.28097818     0.76800
O55         O  0.21257076  0.16851632  0.32606558    -0.61600
O56         O  0.14428576  0.11890525  0.32195180    -0.52500
C57         C  0.16792579  0.18954404  0.37132440     0.69500
O58         O  0.20239886  0.21853496  0.36056095    -0.47400
C59         C  0.12518198  0.21854685  0.32335452     0.74200
O60         O  0.21290900  0.23188141  0.29492351    -0.59300
O61         O  0.10911633  0.17680946  0.32133724    -0.49300
O62         O  0.14963581  0.16993654  0.29032387    -0.55700
C63         C  0.18076939  0.12741003  0.32302552     0.84400
O64         O  0.13643381  0.16107475  0.35858954    -0.57600
O65         O  0.16524036  0.24599496  0.32666568    -0.60900
In66       In  0.17524070  0.19560777  0.21045958     1.36900
C67         C  0.18399080  0.20475134  0.25549175     0.76800
O68         O  0.16800369  0.25076681  0.20995892    -0.61600
O69         O  0.11294097  0.18083065  0.21404335    -0.52500
C70         C  0.17203760  0.19207162  0.16459847     0.69500
O71         O  0.20609488  0.22285417  0.17541158    -0.47400
C72         C  0.18830632  0.13562363  0.21504138     0.74200
O73         O  0.21447915  0.23537953  0.24270395    -0.59300
O74         O  0.15134475  0.12597052  0.21461300    -0.49300
O75         O  0.15129750  0.17237222  0.24487760    -0.55700
C76         C  0.12803756  0.22236082  0.21310577     0.84400
O77         O  0.14123103  0.16351561  0.17741992    -0.57600
O78         O  0.21962890  0.17697912  0.21207995    -0.60900
In79       In  0.04744709  0.25679212  0.21792675     1.36900
C80         C  0.06363633  0.30066689  0.25735660     0.76800
O81         O  0.49702468  0.23056033  0.21746990    -0.61600
O82         O  0.52066244  0.19401367  0.22900322    -0.52500
C83         C  0.04912985  0.26886464  0.17309648     0.69500
O84         O  0.06977103  0.30279609  0.18665728    -0.47400
C85         C  0.10028609  0.23583273  0.21567230     0.74200
O86         O  0.03179202  0.28911866  0.24522039    -0.59300
O87         O  0.06312992  0.20896258  0.22362968    -0.49300
O88         O  0.09100666  0.29950108  0.24693521    -0.55700
C89         C  0.48884132  0.19317451  0.22364937     0.84400
O90         O  0.02536553  0.23131659  0.18281212    -0.57600
O91         O  0.11125313  0.27446773  0.20988842    -0.60900
In92       In  0.04789949  0.25787895  0.32239619     1.36900
C93         C  0.06322353  0.30053844  0.28266646     0.76800
O94         O  0.11039032  0.27148841  0.33003148    -0.61600
O95         O  0.06116437  0.20856815  0.31410185    -0.52500
C96         C  0.05333528  0.27750116  0.36683029     0.69500
O97         O  0.07502339  0.30877898  0.35218940    -0.47400
C98         C  0.48199889  0.19310277  0.31735697     0.74200
O99         O  0.03050903  0.28723032  0.29420010    -0.59300
O100        O  0.51247219  0.19294133  0.31016223    -0.49300
O101        O  0.09117421  0.30106229  0.29366066    -0.55700
C102        C  0.09844141  0.23347432  0.32231535     0.84400
O103        O  0.02812241  0.23870199  0.35835881    -0.57600
O104        O  0.49186862  0.23089846  0.32445290    -0.60900
In105      In  0.36278233  0.07593039  0.32540191     1.36900
C106        C  0.33317686  0.06906642  0.28275601     0.76800
O107        O  0.40794304  0.15143429  0.32581211    -0.61600
O108        O  0.43032473  0.11322169  0.31519605    -0.52500
C109        C  0.34245950  0.07073999  0.36984901     0.69500
O110        O  0.31684405  0.06377185  0.35376578    -0.47400
C111        C  0.34939952  0.49382774  0.32229899     0.74200
O112        O  0.32625982  0.03594607  0.29380447    -0.59300
O113        O  0.38308314  0.53229478  0.31739686    -0.49300
O114        O  0.34680358  0.10370162  0.29506529    -0.55700
C115        C  0.43878009  0.15164124  0.31906178     0.84400
O116        O  0.37920594  0.08651031  0.36298067    -0.57600
O117        O  0.31700922  0.49262231  0.32603214    -0.60900
In118      In  0.36947230  0.07578616  0.21592123     1.36900
C119        C  0.33579911  0.06953491  0.25730812     0.76800
O120        O  0.32460568  0.49659869  0.20940751    -0.61600
O121        O  0.39183050  0.54092647  0.21475069    -0.52500
C122        C  0.34955796  0.07547999  0.17177869     0.69500
O123        O  0.32443974  0.06741658  0.18812649    -0.47400
C124        C  0.44582401  0.15126431  0.22259604     0.74200
O125        O  0.33033347  0.03655166  0.24680429    -0.59300
O126        O  0.43813894  0.11284513  0.22480390    -0.49300
O127        O  0.35224108  0.10459239  0.24510424    -0.55700
C128        C  0.35888640  0.50093430  0.21162336     0.84400
O129        O  0.38554572  0.08766238  0.17831958    -0.57600
O130        O  0.41413624  0.15090511  0.21778247    -0.60900
In131      In  0.36249074  0.39347167  0.21050556     1.36900
C132        C  0.34763621  0.38093908  0.25492654     0.76800
O133        O  0.36577352  0.33547790  0.21061204    -0.61600
O134        O  0.42342718  0.40424559  0.21220057    -0.52500
C135        C  0.35720387  0.38703066  0.16538408     0.69500
O136        O  0.32553409  0.35832599  0.17804610    -0.47400
C137        C  0.36016645  0.46229614  0.21091026     0.74200
O138        O  0.31776411  0.35382009  0.24070242    -0.59300
O139        O  0.39497729  0.46709913  0.21247835    -0.49300
O140        O  0.38266670  0.41230712  0.24598790    -0.55700
C141        C  0.40613712  0.36208760  0.21158073     0.84400
O142        O  0.39054519  0.41806322  0.17611487    -0.57600
O143        O  0.32651079  0.42197362  0.20889326    -0.60900
In144      In  0.35248372  0.38624848  0.32521240     1.36900
C145        C  0.34530808  0.37921060  0.28029087     0.76800
O146        O  0.31497571  0.41381425  0.32528952    -0.61600
O147        O  0.38370402  0.45874887  0.32365320    -0.52500
C148        C  0.35086817  0.38366062  0.37036073     0.69500
O149        O  0.31848086  0.35299865  0.35841137    -0.47400
C150        C  0.39600950  0.35482226  0.32437500     0.74200
O151        O  0.31295749  0.35035024  0.29257864    -0.59300
O152        O  0.41292055  0.39686710  0.32410843    -0.49300
O153        O  0.37863898  0.40925287  0.29132219    -0.55700
C154        C  0.34898224  0.45414985  0.32380677     0.84400
O155        O  0.38289295  0.41443065  0.35897558    -0.57600
O156        O  0.35557011  0.32779356  0.32507662    -0.60900
C157        C  0.19437465  0.19036231  0.96674652     0.85700
C158        C  0.18885613  0.21478108  0.98571452    -0.54500
C159        C  0.21015894  0.22015626  0.00558933     0.08700
C160        C  0.23977054  0.20341652  0.00346108     0.19600
C161        C  0.24295209  0.21845684  0.96301424    -0.55200
C162        C  0.26768783  0.23041635  0.98254539     0.08800
C163        C  0.18225656  0.14692308  0.97884879    -0.54800
C164        C  0.21167855  0.15223054  0.99440343     0.09300
H165        H  0.16665353  0.22320497  0.98426205     0.13800
H166        H  0.25795765  0.20856734  0.01947647    -0.00400
H167        H  0.25591422  0.23049320  0.94591341     0.14100
H168        H  0.15641733  0.11354467  0.97309869     0.13900
C169        C  0.35607202  0.35530690  0.96988410     0.85700
C170        C  0.39423469  0.36279434  0.98319902    -0.54500
C171        C  0.38391307  0.32996228  0.99954442     0.08700
C172        C  0.33490153  0.30343192  0.00605824     0.19600
C173        C  0.32527899  0.30429167  0.96515497    -0.55200
C174        C  0.31070452  0.27638316  0.98384748     0.08800
C175        C  0.33518670  0.36496983  0.98861417    -0.54800
C176        C  0.32426345  0.33909581  0.00788971     0.09300
H177        H  0.42620066  0.38489725  0.97628045     0.13800
H178        H  0.32582284  0.28205999  0.02168855    -0.00400
H179        H  0.31407808  0.29248920  0.94765526     0.14100
H180        H  0.33264579  0.39274963  0.98764607     0.13900
C181        C  0.16903670  0.21671435  0.06568250     0.85700
C182        C  0.18916181  0.20737650  0.04649956    -0.54500
C183        C  0.19794594  0.23263467  0.02718313     0.08700
C184        C  0.18655151  0.26787556  0.02962082     0.19600
C185        C  0.20018027  0.26802043  0.07008657    -0.55200
C186        C  0.21233072  0.29566920  0.05124869     0.08800
C187        C  0.12973233  0.20813808  0.05306642    -0.54800
C188        C  0.13811403  0.24107854  0.03741849     0.09300
H189        H  0.19287391  0.18041063  0.04727854     0.13800
H190        H  0.19414127  0.28876587  0.01394201    -0.00400
H191        H  0.21384792  0.28002943  0.08720231     0.14100
H192        H  0.09790829  0.18435374  0.05984779     0.13900
C193        C  0.32683094  0.38465689  0.06733534     0.85700
C194        C  0.34044457  0.42711705  0.05353623    -0.54500
C195        C  0.31079491  0.42101313  0.03799074     0.08700
C196        C  0.28158591  0.36879227  0.03024262     0.19600
C197        C  0.27835734  0.35810109  0.07108505    -0.55200
C198        C  0.25353128  0.34360822  0.05157724     0.08800
C199        C  0.33153733  0.35776428  0.04934379    -0.54800
C200        C  0.31059109  0.35124455  0.02909636     0.09300
H201        H  0.36759922  0.46093769  0.05780636     0.13800
H202        H  0.26323667  0.36256506  0.01412990    -0.00400
H203        H  0.26519052  0.34799700  0.08832673     0.14100
H204        H  0.35367529  0.34939002  0.05149572     0.13900
C205        C  0.07398911  0.26696811  0.07386099     0.85700
C206        C  0.09636998  0.31526614  0.06483259    -0.54500
C207        C  0.08954704  0.31706860  0.04207928     0.08700
C208        C  0.08687955  0.27596657  0.02967867     0.19600
C209        C  0.03320935  0.23198536  0.05805381    -0.55200
C210        C  0.03997532  0.23690845  0.03461715     0.08800
C211        C  0.10583258  0.25979275  0.06705762    -0.54800
C212        C  0.11449321  0.26258607  0.04389321     0.09300
H213        H  0.10311872  0.34195808  0.07641927     0.13800
H214        H  0.09571734  0.28339932  0.01119846    -0.00400
H215        H  0.00147112  0.20673958  0.06433892     0.14100
H216        H  0.12011790  0.25183117  0.08028718     0.13900
C217        C  0.02379631  0.35157427  0.06789513     0.85700
C218        C  0.99798223  0.35207973  0.04853629    -0.54500
C219        C  0.01401104  0.35714568  0.02648601     0.08700
C220        C  0.06143224  0.36924022  0.02726192     0.19600
C221        C  0.03048339  0.31712951  0.05925467    -0.55200
C222        C  0.05623937  0.32814490  0.03998131     0.08800
C223        C  0.06577654  0.39792491  0.06574153    -0.54800
C224        C  0.08759038  0.40952668  0.04527554     0.09300
H225        H  0.47074553  0.34802939  0.05063125     0.13800
H226        H  0.07665087  0.37647487  0.01003643    -0.00400
H227        H  0.02136502  0.28975816  0.07086543     0.14100
H228        H  0.07680355  0.41989123  0.08068211     0.13900
C229        C  0.49810219  0.22247522  0.97670718     0.85700
C230        C  0.49660410  0.25999772  0.98630232    -0.54500
C231        C  0.46980584  0.24896060  0.00501613     0.08700
C232        C  0.46362201  0.20764740  0.01799931     0.19600
C233        C  0.02066476  0.21989499  0.99312545    -0.55200
C234        C  0.50950847  0.21654315  0.01759727     0.08800
C235        C  0.45364223  0.17745290  0.97960352    -0.54800
C236        C  0.43459708  0.16701987  0.00105523     0.09300
H237        H  0.50734375  0.28790955  0.97481615     0.13800
H238        H  0.45010695  0.20202532  0.03561341    -0.00400
H239        H  0.05028793  0.22504841  0.98932241     0.14100
H240        H  0.43930798  0.15396319  0.96523445     0.13900
C241        C  0.44704139  0.29992166  0.96618903     0.85700
C242        C  0.41412941  0.30610213  0.97181918    -0.54500
C243        C  0.40629156  0.30677962  0.99477910     0.08700
C244        C  0.43534582  0.29757294  0.01041768     0.19600
C245        C  0.48789085  0.33880497  0.98124216    -0.55200
C246        C  0.48174979  0.33684236  0.00487060     0.08800
C247        C  0.42774979  0.25390405  0.97730367    -0.54800
C248        C  0.43461123  0.25632024  0.00043720     0.09300
H249        H  0.40029874  0.31342239  0.95799551     0.13800
H250        H  0.42609729  0.29190647  0.02884713    -0.00400
H251        H  0.01728743  0.36383673  0.97632925     0.14100
H252        H  0.42502373  0.22748837  0.96702047     0.13900
C253        C  0.22135874  0.06487689  0.96269884     0.85700
C254        C  0.26907388  0.09537540  0.96432822    -0.54500
C255        C  0.28824458  0.11433236  0.98532128     0.08700
C256        C  0.25337989  0.10804739  0.00241205     0.19600
C257        C  0.20637102  0.03333414  0.98402416    -0.55200
C258        C  0.22232892  0.05523271  0.00489457     0.08800
C259        C  0.21097836  0.09697726  0.96801766    -0.54800
C260        C  0.22566030  0.12076379  0.98874541     0.09300
H261        H  0.28546050  0.09634185  0.94918162     0.13800
H262        H  0.26752902  0.12726371  0.01879623    -0.00400
H263        H  0.18520032  0.99691475  0.98320850     0.14100
H264        H  0.19452230  0.10151461  0.95454659     0.13900
C265        C  0.34519256  0.06621161  0.97438092     0.85700
C266        C  0.31284544  0.03329664  0.99246122    -0.54500
C267        C  0.31457198  0.05277538  0.01310603     0.08700
C268        C  0.34571743  0.10650466  0.01167803     0.19600
C269        C  0.34157620  0.10505244  0.97103812    -0.55200
C270        C  0.32978324  0.11786546  0.98968282     0.08800
C271        C  0.38644064  0.08881814  0.98831287    -0.54800
C272        C  0.39201651  0.11909941  0.00497862     0.09300
H273        H  0.29581004  0.99719603  0.99015771     0.13800
H274        H  0.34665582  0.12416396  0.02752756    -0.00400
H275        H  0.34661533  0.12021842  0.95406983     0.14100
H276        H  0.41259506  0.08876458  0.98227326     0.13900
C277        C  0.28753435  0.49345649  0.07349523     0.85700
C278        C  0.31000067  0.47444400  0.06539877    -0.54500
C279        C  0.29673940  0.45218678  0.04393382     0.08700
C280        C  0.26384188  0.46030664  0.03187227     0.19600
C281        C  0.30773696  0.04235716  0.05693497    -0.55200
C282        C  0.29744580  0.02392017  0.03498576     0.08800
C283        C  0.24173533  0.44999343  0.07043362    -0.54800
C284        C  0.22570943  0.44566147  0.04938921     0.09300
H285        H  0.33030409  0.47389554  0.07792326     0.13800
H286        H  0.25142853  0.44295320  0.01491502    -0.00400
H287        H  0.32547038  0.07842632  0.06014651     0.14100
H288        H  0.23234511  0.41877486  0.07878547     0.13900
C289        C  0.18747080  0.02114747  0.06786015     0.85700
C290        C  0.14072722  0.48563615  0.06236498    -0.54500
C291        C  0.13198245  0.45621415  0.04455176     0.08700
C292        C  0.17502105  0.47131797  0.03260665     0.19600
C293        C  0.20251337  0.48831433  0.07121498    -0.55200
C294        C  0.20077907  0.46663998  0.05108631     0.08800
C295        C  0.21212251  0.05240938  0.04765400    -0.54800
C296        C  0.20895658  0.03012933  0.02759167     0.09300
H297        H  0.11641629  0.48719015  0.07002774     0.13800
H298        H  0.17030983  0.45219952  0.01654791    -0.00400
H299        H  0.21670970  0.48811294  0.08719971     0.14100
H300        H  0.22622779  0.08818724  0.04855061     0.13900
C301        C  0.22786291  0.08093760  0.57523628     0.85700
C302        C  0.20962162  0.10402408  0.56692766    -0.54500
C303        C  0.22229553  0.12371634  0.54514525     0.08700
C304        C  0.25248700  0.11167260  0.53342155     0.19600
C305        C  0.21345208  0.04349362  0.55592175    -0.55200
C306        C  0.22435720  0.05907351  0.53372919     0.08800
C307        C  0.27523556  0.12031603  0.57243065    -0.54800
C308        C  0.28994875  0.12386362  0.55091235     0.09300
H309        H  0.19067594  0.10720436  0.57917752     0.13800
H310        H  0.26517099  0.12779080  0.51637427    -0.00400
H311        H  0.19556828  0.00761098  0.55894570     0.14100
H312        H  0.29701558  0.13406222  0.58713617     0.13900
C313        C  0.33347085  0.05605137  0.57087293     0.85700
C314        C  0.37890763  0.08943296  0.56246641    -0.54500
C315        C  0.38539326  0.11644688  0.54414217     0.08700
C316        C  0.34118168  0.09890715  0.53219866     0.19600
C317        C  0.31421700  0.08121809  0.57097698    -0.55200
C318        C  0.31570084  0.10352810  0.55125249     0.08800
C319        C  0.31198226  0.02408313  0.55028101    -0.54800
C320        C  0.31574674  0.04512582  0.52957553     0.09300
H321        H  0.40505321  0.09195944  0.57088283     0.13800
H322        H  0.34457205  0.11678272  0.51594881    -0.00400
H323        H  0.29679169  0.07701988  0.58649319     0.14100
H324        H  0.29723926  0.98829869  0.55199794     0.13900
C325        C  0.28896991  0.49455920  0.46178552     0.85700
C326        C  0.24147097  0.45673036  0.46526513    -0.54500
C327        C  0.22748342  0.45061578  0.48722150     0.08700
C328        C  0.26583450  0.46149167  0.50346512     0.19600
C329        C  0.31045842  0.03551454  0.48570234    -0.55200
C330        C  0.29867248  0.01727069  0.50741750     0.08800
C331        C  0.30452462  0.46764868  0.46838893    -0.54800
C332        C  0.29305487  0.44765184  0.49014249     0.09300
H333        H  0.21876901  0.43619151  0.45161136     0.13800
H334        H  0.25419662  0.44542798  0.52063762    -0.00400
H335        H  0.32890282  0.07166751  0.48293908     0.14100
H336        H  0.31988721  0.46152539  0.45504854     0.13900
C337        C  0.18265602  0.01383274  0.47237359     0.85700
C338        C  0.21135887  0.04755131  0.49115302    -0.54500
C339        C  0.20850777  0.02867876  0.51223965     0.08700
C340        C  0.17894091  0.47550490  0.51039229     0.19600
C341        C  0.19434348  0.48623969  0.46996087    -0.55200
C342        C  0.19875701  0.46731148  0.48930534     0.08800
C343        C  0.13819155  0.48915563  0.48451599    -0.54800
C344        C  0.13295326  0.46000294  0.50153528     0.09300
H345        H  0.22774647  0.08338645  0.48830816     0.13800
H346        H  0.17793240  0.45863169  0.52655163    -0.00400
H347        H  0.20209666  0.48265026  0.45260314     0.14100
H348        H  0.11162272  0.48815500  0.47805226     0.13900
C349        C  0.18759118  0.18746883  0.56633994     0.85700
C350        C  0.23629776  0.21580376  0.57065738    -0.54500
C351        C  0.26128724  0.22907582  0.55142674     0.08700
C352        C  0.23392676  0.20403170  0.52989748     0.19600
C353        C  0.18250491  0.21376253  0.54832680    -0.55200
C354        C  0.20441124  0.22105326  0.52848227     0.08800
C355        C  0.17514253  0.14532225  0.55225526    -0.54800
C356        C  0.20598943  0.15222296  0.53757545     0.09300
H357        H  0.24925098  0.22705849  0.58795813     0.13800
H358        H  0.25240657  0.21050807  0.51394871    -0.00400
H359        H  0.16009266  0.22180684  0.55019655     0.14100
H360        H  0.14895239  0.11116650  0.55655665     0.13900
C361        C  0.35449635  0.35250627  0.56551296     0.85700
C362        C  0.33595821  0.36449587  0.54653382    -0.54500
C363        C  0.32318336  0.33761166  0.52748986     0.08700
C364        C  0.33070681  0.29960225  0.52939142     0.19600
C365        C  0.32051463  0.30170625  0.57003723    -0.55200
C366        C  0.30526445  0.27365817  0.55117789     0.08800
C367        C  0.39132972  0.35632553  0.55286149    -0.54800
C368        C  0.37895221  0.32273377  0.53653411     0.09300
H369        H  0.33515881  0.39348003  0.54745807     0.13800
H370        H  0.32077215  0.27813070  0.51363429    -0.00400
H371        H  0.30758514  0.29049450  0.58724136     0.14100
H372        H  0.42333235  0.37633286  0.55996796     0.13900
C373        C  0.15957937  0.21883557  0.46937076     0.85700
C374        C  0.12156545  0.21009717  0.48322433    -0.54500
C375        C  0.13173035  0.24284402  0.49964421     0.08700
C376        C  0.18114684  0.27008971  0.50606952     0.19600
C377        C  0.18955386  0.27010749  0.46504420    -0.55200
C378        C  0.20540351  0.29766389  0.48414357     0.08800
C379        C  0.18195630  0.20994904  0.48763266    -0.54800
C380        C  0.19233365  0.23489200  0.50733982     0.09300
H381        H  0.08902753  0.18621338  0.47731049     0.13800
H382        H  0.19017332  0.29119866  0.52191468    -0.00400
H383        H  0.20044950  0.28222231  0.44762970     0.14100
H384        H  0.18555873  0.18297488  0.48601959     0.13900
C385        C  0.32450831  0.38031611  0.46818441     0.85700
C386        C  0.33093348  0.35604420  0.48665847    -0.54500
C387        C  0.30953264  0.34963655  0.50646630     0.08700
C388        C  0.27974254  0.36631530  0.50491054     0.19600
C389        C  0.27592084  0.35140408  0.46430134    -0.55200
C390        C  0.25136176  0.34003941  0.48368041     0.08800
C391        C  0.33754755  0.42349735  0.48117035    -0.54800
C392        C  0.30803279  0.41771428  0.49655224     0.09300
H393        H  0.35391508  0.34871653  0.48508683     0.13800
H394        H  0.26189116  0.36065158  0.52103085    -0.00400
H395        H  0.26311161  0.33853035  0.44713959     0.14100
H396        H  0.36393627  0.45709625  0.47576130     0.13900
C397        C  0.06577359  0.27112336  0.46673521     0.85700
C398        C  0.02560597  0.23387322  0.48199935    -0.54500
C399        C  0.03245357  0.23670927  0.50543629     0.08700
C400        C  0.07973428  0.27526690  0.51089671     0.19600
C401        C  0.08847448  0.31830778  0.47751066    -0.55200
C402        C  0.08270063  0.31769649  0.50060360     0.08800
C403        C  0.09835091  0.26399602  0.47219884    -0.54800
C404        C  0.10732272  0.26407813  0.49514079     0.09300
H405        H  0.99413909  0.20787657  0.47559606     0.13800
H406        H  0.08928303  0.28097700  0.52935984    -0.00400
H407        H  0.09439272  0.34593568  0.46692953     0.14100
H408        H  0.11372430  0.25913746  0.45829374     0.13900
C409        C  0.02404491  0.35681755  0.47573721     0.85700
C410        C  0.06957118  0.40015032  0.47786504    -0.54500
C411        C  0.08970055  0.41189528  0.49903665     0.08700
C412        C  0.06015922  0.37322106  0.51684133     0.19600
C413        C  0.02315903  0.31829486  0.48607962    -0.55200
C414        C  0.05032715  0.32912247  0.50477971     0.08800
C415        C  0.00110688  0.36409450  0.49417354    -0.54800
C416        C  0.01547836  0.36713134  0.51656152     0.09300
H417        H  0.08411671  0.42180784  0.46295562     0.13800
H418        H  0.07458237  0.37983724  0.53436180    -0.00400
H419        H  0.01012913  0.28883546  0.47526266     0.14100
H420        H  0.46437577  0.34478278  0.48856418     0.13900
C421        C  0.49854229  0.22230955  0.56279546     0.85700
C422        C  0.01353598  0.21912877  0.54647019    -0.54500
C423        C  0.50164339  0.20566353  0.52220581     0.08700
C424        C  0.45588640  0.19702078  0.52327485     0.19600
C425        C  0.49503287  0.25763456  0.55082963    -0.55200
C426        C  0.46505194  0.24194446  0.53303006     0.08800
C427        C  0.45316802  0.17900884  0.56379245    -0.54800
C428        C  0.43014990  0.16251520  0.54341444     0.09300
H429        H  0.04319169  0.22414390  0.55024537     0.13800
H430        H  0.43843446  0.18601406  0.50649280    -0.00400
H431        H  0.50893449  0.28991589  0.55859849     0.14100
H432        H  0.43992590  0.16349585  0.58049174     0.13900
C433        C  0.43902571  0.29276406  0.57167578     0.85700
C434        C  0.42382253  0.24762947  0.56066416    -0.54500
C435        C  0.43004406  0.24940649  0.53754787     0.08700
C436        C  0.42908737  0.28930314  0.52720146     0.19600
C437        C  0.47956394  0.33208494  0.55739671    -0.55200
C438        C  0.47417324  0.33009544  0.53370352     0.08800
C439        C  0.40291343  0.29351453  0.56493323    -0.54800
C440        C  0.39753712  0.29586688  0.54172550     0.09300
H441        H  0.42254996  0.22230080  0.57086948     0.13800
H442        H  0.42097413  0.28341954  0.50854183    -0.00400
H443        H  0.01791977  0.36628140  0.56604237     0.14100
H444        H  0.38572431  0.29734855  0.57824033     0.13900
In445      In  0.97349810  0.33384236  0.71837442     1.36900
C446        C  0.95339331  0.28783826  0.75733603     0.76800
O447        O  0.04086857  0.35990553  0.71246848    -0.61600
O448        O  0.02776220  0.40331243  0.72808962    -0.52500
C449        C  0.45829359  0.28945027  0.67201763     0.69500
O450        O  0.43829767  0.25545623  0.68537491    -0.47400
C451        C  0.41323258  0.32715037  0.71549159     0.74200
O452        O  0.98923299  0.30743793  0.74805896    -0.59300
O453        O  0.45153924  0.35327983  0.72208638    -0.49300
O454        O  0.92567401  0.28516706  0.74482992    -0.55700
C455        C  0.05509630  0.39891662  0.72006619     0.84400
O456        O  0.97503095  0.35387724  0.68312554    -0.57600
O457        O  0.39905400  0.28683483  0.71094909    -0.60900
In458      In  0.46557302  0.30695785  0.82076213     1.36900
C459        C  0.94840918  0.28132121  0.78231761     0.76800
O460        O  0.40076604  0.28746506  0.82667059    -0.61600
O461        O  0.44973479  0.35334126  0.81328665    -0.52500
C462        C  0.46523615  0.29787683  0.86600802     0.69500
O463        O  0.44825522  0.26378287  0.85260737    -0.47400
C464        C  0.04141457  0.38625013  0.81744177     0.74200
O465        O  0.48127452  0.27619521  0.79287377    -0.59300
O466        O  0.01191417  0.38907332  0.81161390    -0.49300
O467        O  0.91899003  0.27904238  0.79259242    -0.55700
C468        C  0.41200658  0.32595371  0.82035023     0.84400
O469        O  0.48313753  0.33517112  0.85604580    -0.57600
O470        O  0.02996186  0.34805757  0.82472008    -0.60900
In471      In  0.17453616  0.00591713  0.71458944     1.36900
C472        C  0.20671653  0.00964657  0.75530730     0.76800
O473        O  0.20364925  0.07953175  0.71268760    -0.61600
O474        O  0.13606929  0.03219489  0.71466873    -0.52500
C475        C  0.19633496  0.01459670  0.67060108     0.69500
O476        O  0.22377783  0.02924358  0.68664035    -0.47400
C477        C  0.09972286  0.43742413  0.71873149     0.74200
O478        O  0.19150724  0.97538740  0.74244573    -0.59300
O479        O  0.11160931  0.47704595  0.72337047    -0.49300
O480        O  0.21471402  0.04410093  0.74520077    -0.55700
C481        C  0.16818445  0.07292068  0.71280300     0.84400
O482        O  0.15847822  0.99034932  0.67729455    -0.57600
O483        O  0.12858199  0.43403041  0.71218768    -0.60900
In484      In  0.17072563  0.99892344  0.82175857     1.36900
C485        C  0.20492626  0.00776260  0.78064767     0.76800
O486        O  0.11484522  0.42494972  0.82616774    -0.61600
O487        O  0.09609182  0.46389550  0.81088846    -0.52500
C488        C  0.19261184  0.00441185  0.86589061     0.69500
O489        O  0.22015932  0.02189555  0.85000897    -0.47400
C490        C  0.16382605  0.06586535  0.82400807     0.74200
O491        O  0.18892988  0.97204704  0.79220787    -0.59300
O492        O  0.13184171  0.02517427  0.82133592    -0.49300
O493        O  0.21066110  0.04022101  0.79185078    -0.55700
C494        C  0.08546063  0.42576006  0.81765681     0.84400
O495        O  0.15492026  0.97896208  0.85878723    -0.57600
O496        O  0.19910714  0.07219945  0.82543673    -0.60900
In497      In  0.15690660  0.17456881  0.70976087     1.36900
C498        C  0.16660736  0.18107936  0.75447899     0.76800
O499        O  0.15347576  0.23272480  0.71136795    -0.61600
O500        O  0.09615780  0.16363910  0.71185894    -0.52500
C501        C  0.16089176  0.18071208  0.66460223     0.69500
O502        O  0.19220215  0.21057749  0.67738412    -0.47400
C503        C  0.16444326  0.10970288  0.71096114     0.74200
O504        O  0.19802005  0.21017268  0.74174702    -0.59300
O505        O  0.12829566  0.10214131  0.71081925    -0.49300
O506        O  0.13253248  0.15090836  0.74397732    -0.55700
C507        C  0.11309360  0.20571358  0.71248450     0.84400
O508        O  0.12872012  0.14821234  0.67524569    -0.57600
O509        O  0.19692913  0.15088020  0.70960777    -0.60900
In510      In  0.15481391  0.16979159  0.82440898     1.36900
C511        C  0.16628565  0.17974595  0.77982037     0.76800
O512        O  0.19328820  0.14417604  0.82622501    -0.61600
O513        O  0.12481490  0.09652053  0.82385497    -0.52500
C514        C  0.16125239  0.18075781  0.86931584     0.69500
O515        O  0.19215211  0.20893664  0.85609601    -0.47400
C516        C  0.11012082  0.19998671  0.82287252     0.74200
O517        O  0.19714750  0.20772116  0.79335433    -0.59300
O518        O  0.09328764  0.15789821  0.82233714    -0.49300
O519        O  0.13212596  0.14836747  0.78948455    -0.55700
C520        C  0.16052497  0.10317292  0.82486613     0.84400
O521        O  0.12839299  0.14745923  0.85921827    -0.57600
O522        O  0.15048089  0.22701417  0.82381812    -0.60900
In523      In  0.03295248  0.24083345  0.71289472     1.36900
C524        C  0.04110551  0.27186832  0.75713389     0.76800
O525        O  0.46553557  0.20993611  0.70958118    -0.61600
O526        O  0.47914875  0.16202772  0.71378967    -0.52500
C527        C  0.03302242  0.25249361  0.66615160     0.69500
O528        O  0.04024192  0.28313508  0.68036577    -0.47400
C529        C  0.08636134  0.22070289  0.71406146     0.74200
O530        O  0.07346246  0.28873644  0.74439138    -0.59300
O531        O  0.04719861  0.19242419  0.71809155    -0.49300
O532        O  0.00683703  0.24788115  0.74589351    -0.55700
C533        C  0.45149939  0.16901203  0.71223025     0.84400
O534        O  0.02757586  0.21920677  0.67619069    -0.57600
O535        O  0.09948227  0.26114232  0.71069844    -0.60900
In536      In  0.03335222  0.23908193  0.82731723     1.36900
C537        C  0.04037623  0.27000582  0.78318168     0.76800
O538        O  0.09862775  0.25675411  0.82588626    -0.61600
O539        O  0.04382738  0.18751006  0.82195257    -0.52500
C540        C  0.03727512  0.25673127  0.87378052     0.69500
O541        O  0.02797467  0.27496834  0.85880512    -0.47400
C542        C  0.46110432  0.18027504  0.82455164     0.74200
O543        O  0.07186070  0.29120313  0.79704831    -0.59300
O544        O  0.48813592  0.17220849  0.82455980    -0.49300
O545        O  0.00642310  0.24002117  0.79310072    -0.55700
C546        C  0.08379313  0.21552357  0.82325429     0.84400
O547        O  0.04964813  0.23545373  0.86478060    -0.57600
O548        O  0.47567819  0.22138079  0.82735653    -0.60900
In549      In  0.32826202  0.05720993  0.71579384     1.36900
C550        C  0.30380112  0.05903568  0.75975161     0.76800
O551        O  0.29071820  0.46131411  0.70685506    -0.61600
O552        O  0.35750744  0.51090677  0.71385782    -0.52500
C553        C  0.30563359  0.04407302  0.67036872     0.69500
O554        O  0.32227195  0.08137996  0.68067020    -0.47400
C555        C  0.40691911  0.13079775  0.71367384     0.74200
O556        O  0.28969566  0.02337781  0.74852571    -0.59300
O557        O  0.39695646  0.09183756  0.71755515    -0.49300
O558        O  0.32258156  0.09351064  0.74704335    -0.55700
C559        C  0.32677358  0.46989092  0.71010111     0.84400
O560        O  0.29012709  0.01153626  0.68413902    -0.57600
O561        O  0.37615125  0.13305390  0.71110747    -0.60900
In562      In  0.34077022  0.06807032  0.82776601     1.36900
C563        C  0.30627735  0.06027753  0.78567913     0.76800
O564        O  0.38619852  0.14420041  0.82875226    -0.61600
O565        O  0.40629470  0.10408053  0.81709733    -0.52500
C566        C  0.33738314  0.06468685  0.87460729     0.69500
O567        O  0.30455036  0.05231085  0.86261039    -0.47400
C568        C  0.32133396  0.46256050  0.81914080     0.74200
O569        O  0.30021595  0.02741011  0.79666144    -0.59300
O570        O  0.35259677  0.50134445  0.81260383    -0.49300
O571        O  0.32179031  0.09532837  0.79812194    -0.55700
C572        C  0.41642460  0.14259020  0.82272226     0.84400
O573        O  0.37032343  0.08349971  0.86268349    -0.57600
O574        O  0.28768370  0.45804066  0.82457234    -0.60900
In575      In  0.34491721  0.37427768  0.70908708     1.36900
C576        C  0.33225975  0.36313126  0.75400122     0.76800
O577        O  0.34782988  0.31661254  0.70903345    -0.61600
O578        O  0.40510130  0.38542202  0.71423826    -0.52500
C579        C  0.35115924  0.37618326  0.66369620     0.69500
O580        O  0.31601434  0.34669953  0.67379241    -0.47400
C581        C  0.33285439  0.43501921  0.70933344     0.74200
O582        O  0.30282399  0.33378451  0.74011142    -0.59300
O583        O  0.36983306  0.44496276  0.71133626    -0.49300
O584        O  0.36552332  0.39653965  0.74450774    -0.55700
C585        C  0.38779539  0.34327796  0.71289189     0.84400
O586        O  0.38201252  0.40398353  0.67697563    -0.57600
O587        O  0.30179363  0.39339425  0.70670866    -0.60900
In588      In  0.33993531  0.36823292  0.82490085     1.36900
C589        C  0.33139379  0.36131561  0.77956555     0.76800
O590        O  0.29514275  0.38579310  0.82514763    -0.61600
O591        O  0.36336031  0.43724161  0.82121329    -0.52500
C592        C  0.34802151  0.37341197  0.87073538     0.69500
O593        O  0.31306311  0.34213108  0.86076940    -0.47400
C594        C  0.38452729  0.33951201  0.82191626     0.74200
O595        O  0.30062789  0.33073271  0.79222989    -0.59300
O596        O  0.40059521  0.38128765  0.82089332    -0.49300
O597        O  0.36433502  0.39286391  0.79039610    -0.55700
C598        C  0.32623301  0.42711849  0.82175419     0.84400
O599        O  0.37743520  0.40177069  0.85715967    -0.57600
O600        O  0.34438145  0.31143969  0.82470962    -0.60900
C601        C  0.41784190  0.25173945  0.61043815    -0.27100
C602        C  0.44357455  0.29317612  0.59815957    -0.15100
C603        C  0.47053156  0.33345223  0.61140342     0.35500
C604        C  0.47495693  0.33040944  0.63511944    -0.26500
C605        C  0.45297571  0.28851986  0.64661802    -0.15800
C606        C  0.42386598  0.24866758  0.63410693     0.36600
N607        N  0.40011141  0.20537057  0.64538474    -0.90000
H608        H  0.39249325  0.22104333  0.60173905     0.17700
H609        H  0.99058102  0.38489201  0.64456414     0.17700
N610        N  0.49108836  0.37815169  0.60224362    -0.89000
H611        H  0.37937824  0.17940230  0.63368668     0.35000
H612        H  0.42191899  0.19940558  0.65069093     0.40100
H613        H  0.47482270  0.37827370  0.58792604     0.39800
H614        H  0.02051567  0.40666811  0.59401640     0.34700
C615        C  0.01755657  0.21267330  0.62781391    -0.27100
C616        C  0.02911156  0.25193999  0.63990077    -0.15100
C617        C  0.53999624  0.28040510  0.62451782     0.35500
C618        C  0.53057234  0.27411292  0.60031197    -0.26500
C619        C  0.51919054  0.23461082  0.58793645    -0.15800
C620        C  0.01071101  0.20736419  0.60367027     0.36600
N621        N  0.00347262  0.16769476  0.59350279    -0.90000
H622        H  0.01395383  0.18514536  0.63724573     0.17700
H623        H  0.53216228  0.30091838  0.59171584     0.17700
N624        N  0.55559809  0.32287960  0.63544049    -0.89000
H625        H  0.02717949  0.17752398  0.58139531     0.35000
H626        H  0.97380567  0.14780220  0.58542721     0.40100
H627        H  0.53394343  0.31710955  0.64803118     0.39800
H628        H  0.55731389  0.34521399  0.62348811     0.34700
C629        C  0.39556248  0.38478898  0.60368523    -0.27100
C630        C  0.36250254  0.37625486  0.58906904    -0.15100
C631        C  0.32833416  0.37365466  0.59965243     0.35500
C632        C  0.32544174  0.37404744  0.62387623    -0.26500
C633        C  0.35653979  0.37846757  0.63819093    -0.15800
C634        C  0.39299549  0.38605462  0.62801991     0.36600
N635        N  0.42623784  0.39249654  0.64247081    -0.90000
H636        H  0.42190025  0.38667395  0.59658777     0.17700
H637        H  0.29811935  0.36991131  0.63154813     0.17700
N638        N  0.29427682  0.36652657  0.58591437    -0.89000
H639        H  0.45134469  0.39880113  0.63243455     0.35000
H640        H  0.41372974  0.36212804  0.65124225     0.40100
H641        H  0.29199771  0.39287073  0.58949883     0.39800
H642        H  0.26593801  0.33609019  0.59093951     0.34700
C643        C  0.13671466  0.14173781  0.62633790    -0.27100
C644        C  0.16108267  0.18247599  0.63896826    -0.15100
C645        C  0.18388332  0.22370740  0.62690781     0.35500
C646        C  0.18441617  0.22309860  0.60255878    -0.26500
C647        C  0.16667468  0.18240090  0.58994293    -0.15800
C648        C  0.13902444  0.14109294  0.60206388     0.36600
N649        N  0.11255821  0.09843887  0.59033880    -0.90000
H650        H  0.11687169  0.10978499  0.63541752     0.17700
H651        H  0.20367115  0.25509567  0.59350142     0.17700
N652        N  0.20761464  0.26602663  0.63936969    -0.89000
H653        H  0.08086239  0.08402459  0.59435749     0.35000
H654        H  0.11970654  0.07710937  0.59676577     0.40100
H655        H  0.18583103  0.26832740  0.64832343     0.39800
H656        H  0.22347062  0.29328623  0.62789460     0.34700
C657        C  0.36140331  0.07049974  0.61227850    -0.27100
C658        C  0.32910135  0.03939072  0.59637485    -0.15100
C659        C  0.28854383  0.00575915  0.60610901     0.35500
C660        C  0.28091622  0.00626612  0.63021706    -0.26500
C661        C  0.31250921  0.04088083  0.64501151    -0.15800
C662        C  0.35372170  0.07162237  0.63595930     0.36600
N663        N  0.38811383  0.10477856  0.65094610    -0.90000
H664        H  0.39265799  0.09748175  0.60625417     0.17700
H665        H  0.24965940  0.98081892  0.63710720     0.17700
N666        N  0.25415394  0.97287708  0.59129844    -0.89000
H667        H  0.41642356  0.12567223  0.64172486     0.35000
H668        H  0.39338358  0.08734003  0.66296427     0.40100
H669        H  0.22973345  0.97644609  0.59276686     0.39800
H670        H  0.24269157  0.94066191  0.59729440     0.34700
C671        C  0.18987949  0.01711356  0.60531817    -0.27100
C672        C  0.21676298  0.06412821  0.60063169    -0.15100
C673        C  0.23514407  0.09416102  0.62023520     0.35500
C674        C  0.23156657  0.07661364  0.64239118    -0.26500
C675        C  0.20661765  0.02993493  0.64638913    -0.15800
C676        C  0.18443174  0.00001719  0.62767484     0.36600
N677        N  0.15616036  0.95186962  0.63076579    -0.90000
H678        H  0.17119935  0.99236581  0.59196497     0.17700
H679        H  0.24587401  0.09985173  0.65700571     0.17700
N680        N  0.25566593  0.14214251  0.61898957    -0.89000
H681        H  0.14734809  0.44313268  0.64082551     0.35000
H682        H  0.17271329  0.94154056  0.63917044     0.40100
H683        H  0.25248849  0.15258089  0.60294534     0.39800
H684        H  0.28809281  0.15928803  0.62265764     0.34700
C685        C  0.30095567  0.03247001  0.91307071    -0.27100
C686        C  0.33855464  0.05674603  0.90019949    -0.15100
C687        C  0.37661595  0.06987539  0.91192575     0.35500
C688        C  0.37735003  0.06635141  0.93614916    -0.26500
C689        C  0.34056359  0.04731558  0.94960941    -0.15800
C690        C  0.30123694  0.02608080  0.93712422     0.36600
N691        N  0.26079510  0.99806895  0.94828197    -0.90000
H692        H  0.27085234  0.01794393  0.90437365     0.17700
H693        H  0.40784223  0.08111112  0.94435620     0.17700
N694        N  0.41519781  0.08614665  0.89992116    -0.89000
H695        H  0.25855001  0.01654013  0.96101745     0.35000
H696        H  0.25811714  0.97071963  0.95588654     0.40100
H697        H  0.42582640  0.11572633  0.89118406     0.39800
H698        H  0.40900729  0.06134848  0.88797314     0.34700
C699        C  0.17657653  0.98581143  0.90783666    -0.27100
C700        C  0.20202590  0.01757734  0.89057744    -0.15100
C701        C  0.22902713  0.06364389  0.89657937     0.35500
C702        C  0.23012443  0.07706572  0.91940209    -0.26500
C703        C  0.20828221  0.04544389  0.93758383    -0.15800
C704        C  0.17939535  0.99903781  0.93117741     0.36600
N705        N  0.15083157  0.96532700  0.94755946    -0.90000
H706        H  0.15353407  0.95047113  0.90307573     0.17700
H707        H  0.25059561  0.11308423  0.92323061     0.17700
N708        N  0.25445748  0.09731284  0.87935742    -0.89000
H709        H  0.16632632  0.43238983  0.94195518     0.35000
H710        H  0.11967955  0.95022087  0.94179414     0.40100
H711        H  0.28636908  0.11578890  0.88455709     0.39800
H712        H  0.24610436  0.11947910  0.87885606     0.34700
C713        C  0.49209463  0.32654594  0.92947687    -0.27100
C714        C  0.45180820  0.29739015  0.93986201    -0.15100
C715        C  0.41649402  0.26526026  0.92507731     0.35500
C716        C  0.42266187  0.26469155  0.90132037    -0.26500
C717        C  0.46237690  0.29542808  0.89135773    -0.15800
C718        C  0.49745179  0.32667833  0.90560103     0.36600
N719        N  0.53915872  0.35892481  0.89636926    -0.90000
H720        H  0.52029051  0.35031995  0.93944017     0.17700
H721        H  0.39553507  0.24098954  0.89033632     0.17700
N722        N  0.37365599  0.23278599  0.93301860    -0.89000
H723        H  0.53856784  0.38132996  0.88557077     0.35000
H724        H  0.04170005  0.34474178  0.88721942     0.40100
H725        H  0.36116803  0.24865406  0.94010271     0.39800
H726        H  0.37165802  0.21010530  0.94465878     0.34700
C727        C  0.06114992  0.26905258  0.91623374    -0.27100
C728        C  0.02877857  0.25394132  0.89949362    -0.15100
C729        C  0.49040645  0.22173389  0.90924645     0.35500
C730        C  0.48095313  0.21467685  0.93301150    -0.26500
C731        C  0.51258600  0.23226434  0.95057826    -0.15800
C732        C  0.05205596  0.26034082  0.94039158     0.36600
N733        N  0.08655356  0.27888904  0.95651947    -0.90000
H734        H  0.09381209  0.28749213  0.91053231     0.17700
H735        H  0.44774946  0.19543070  0.93745521     0.17700
N736        N  0.45641242  0.19795440  0.89249265    -0.89000
H737        H  0.10647847  0.31408450  0.95454598     0.35000
H738        H  0.10388902  0.26663298  0.95219288     0.40100
H739        H  0.45786030  0.22171849  0.88192277     0.39800
H740        H  0.42676697  0.17981003  0.90053763     0.34700
C741        C  0.39418500  0.38292843  0.93102961    -0.27100
C742        C  0.36289439  0.37758220  0.94592292    -0.15100
C743        C  0.32839843  0.37460679  0.93517153     0.35500
C744        C  0.32492076  0.37454122  0.91085310    -0.26500
C745        C  0.35472356  0.37700033  0.89638351    -0.15800
C746        C  0.39046758  0.38261766  0.90672221     0.36600
N747        N  0.42198808  0.38467261  0.89300036    -0.90000
H748        H  0.42004245  0.38332194  0.93799038     0.17700
H749        H  0.29785711  0.37120538  0.90321394     0.17700
N750        N  0.29457190  0.36778020  0.94879470    -0.89000
H751        H  0.43658756  0.41314570  0.88236787     0.35000
H752        H  0.40685888  0.35565131  0.88253677     0.40100
H753        H  0.26618385  0.33725694  0.94368998     0.39800
H754        H  0.29207225  0.39395372  0.94517432     0.34700
C755        C  0.19214916  0.22753989  0.93069237    -0.29500
C756        C  0.17290889  0.18709349  0.94353164    -0.15100
C757        C  0.14064552  0.14618093  0.93225119     0.35500
C758        C  0.13668709  0.14532149  0.90804793    -0.26500
C759        C  0.16277673  0.18478704  0.89487009    -0.15800
C760        C  0.18858070  0.22679117  0.90640142     0.36600
N761        N  0.21179598  0.26825960  0.89346395    -0.90000
H762        H  0.21398186  0.25970642  0.93940190     0.17700
H763        H  0.11369246  0.11316329  0.89950786     0.17700
N764        N  0.11032725  0.10607768  0.94494596    -0.89000
H765        H  0.22927989  0.29614663  0.90467305     0.35000
H766        H  0.18958449  0.27085465  0.88517416     0.40100
H767        H  0.11142725  0.07996267  0.93891391     0.39800
H768        H  0.07999760  0.09707185  0.94127281     0.34700
C769        C  0.33664019  0.34581570  0.40851186    -0.27100
C770        C  0.35172764  0.38502993  0.39587929    -0.15100
C771        C  0.36747305  0.42572079  0.40775256     0.35500
C772        C  0.36447332  0.42576032  0.43192808    -0.26500
C773        C  0.34508259  0.38537795  0.44471028    -0.15800
C774        C  0.33361642  0.34572825  0.43274304     0.36600
N775        N  0.31490838  0.30407570  0.44497115    -0.90000
H776        H  0.32576641  0.31471316  0.39949666     0.17700
H777        H  0.37427693  0.45712106  0.43992216     0.17700
N778        N  0.38355142  0.46650928  0.39516319    -0.89000
H779        H  0.33236411  0.29167829  0.44133532     0.35000
H780        H  0.28388796  0.28081572  0.43879498     0.40100
H781        H  0.41454053  0.49144066  0.40098879     0.39800
H782        H  0.36480286  0.47722957  0.39912577     0.34700
C783        C  0.32874957  0.34710749  0.10296904    -0.27100
C784        C  0.34699356  0.38845317  0.09109270    -0.15100
C785        C  0.37561167  0.42919017  0.10375785     0.35500
C786        C  0.37977924  0.42743408  0.12783924    -0.26500
C787        C  0.35589806  0.38622900  0.13980195    -0.15800
C788        C  0.33158856  0.34566725  0.12712889     0.36600
N789        N  0.30900127  0.30295165  0.13872974    -0.90000
H790        H  0.30815535  0.31535702  0.09366380     0.17700
H791        H  0.40041593  0.45895250  0.13738843     0.17700
N792        N  0.40064128  0.47249493  0.09285772    -0.89000
H793        H  0.31898820  0.28439400  0.13191269     0.35000
H794        H  0.27663696  0.28545498  0.13492779     0.40100
H795        H  0.39361711  0.49303614  0.10058706     0.39800
H796        H  0.43275119  0.48718418  0.09603879     0.34700
C797        C  0.28097793  0.50983443  0.14021569    -0.27100
C798        C  0.33640599  0.06537701  0.14714995    -0.15100
C799        C  0.36575342  0.08382249  0.12877611     0.35500
C800        C  0.35236463  0.06574909  0.10620651    -0.26500
C801        C  0.29789013  0.51223343  0.09885189    -0.15800
C802        C  0.26993103  0.48950302  0.11822157     0.36600
N803        N  0.23094664  0.44472247  0.11658595    -0.90000
H804        H  0.25973437  0.49106463  0.15455528     0.17700
H805        H  0.37553468  0.08047116  0.09238750     0.17700
N806        N  0.40937218  0.12069209  0.13296247    -0.89000
H807        H  0.23281754  0.42370441  0.12784005     0.35000
H808        H  0.20604757  0.44561952  0.12208783     0.40100
H809        H  0.41706152  0.14748749  0.12226204     0.39800
H810        H  0.42807933  0.11041682  0.12803180     0.34700
C811        C  0.27022500  0.50117860  0.41994642    -0.27100
C812        C  0.30179989  0.51512420  0.43711647    -0.15100
C813        C  0.35292871  0.05772157  0.43454216     0.35500
C814        C  0.36200545  0.07544534  0.41186217    -0.26500
C815        C  0.33034904  0.05713305  0.39448053    -0.15800
C816        C  0.28019579  0.51543624  0.39692515     0.36600
N817        N  0.24755112  0.49268510  0.37942482    -0.90000
H818        H  0.23701115  0.47744700  0.42348334     0.17700
H819        H  0.39468345  0.10256006  0.40752786     0.17700
N820        N  0.38825051  0.07586178  0.45014393    -0.89000
H821        H  0.21773626  0.46867657  0.38668458     0.35000
H822        H  0.25433252  0.47472670  0.36878921     0.40100
H823        H  0.38871603  0.04954599  0.45640239     0.39800
H824        H  0.38571916  0.09241270  0.46391321     0.34700
C825        C  0.01950453  0.25558074  0.40479867    -0.27100
C826        C  0.05687547  0.28303294  0.39206372    -0.15100
C827        C  0.09631322  0.30903330  0.40357509     0.35500
C828        C  0.09750059  0.30406063  0.42758391    -0.26500
C829        C  0.06008105  0.27392660  0.44056356    -0.15800
C830        C  0.02037675  0.25168979  0.42880518     0.36600
N831        N  0.48480230  0.21620388  0.43719773    -0.90000
H832        H  0.49536215  0.22848654  0.39241977     0.17700
H833        H  0.12817352  0.32360946  0.43628253     0.17700
N834        N  0.13496125  0.33922186  0.39088278    -0.89000
H835        H  0.46847530  0.18343365  0.43034471     0.35000
H836        H  0.96484355  0.24066737  0.43703273     0.40100
H837        H  0.13934893  0.31948487  0.38008781     0.39800
H838        H  0.16117514  0.35671234  0.40213914     0.34700
C839        C  0.09582948  0.29497723  0.13910589    -0.27100
C840        C  0.05462601  0.27066896  0.14794778    -0.15100
C841        C  0.01960132  0.24239650  0.13304453     0.35500
C842        C  0.02618746  0.24078546  0.10950079    -0.26500
C843        C  0.06743083  0.26542384  0.10013420    -0.15800
C844        C  0.10266782  0.29243151  0.11551007     0.36600
N845        N  0.14547314  0.31944537  0.10708001    -0.90000
H846        H  0.12297145  0.31560483  0.15061255     0.17700
H847        H  0.99807267  0.22053719  0.09889524     0.17700
N848        N  0.49172950  0.21383521  0.14525328    -0.89000
H849        H  0.16245187  0.31013376  0.11596849     0.35000
H850        H  0.15930263  0.35339011  0.11096269     0.40100
H851        H  0.48253943  0.22932246  0.15603154     0.39800
H852        H  0.49437651  0.19177256  0.15507121     0.34700
C853        C  0.19897194  0.19508388  0.12472741    -0.27100
C854        C  0.16732251  0.18977470  0.13885695    -0.15100
C855        C  0.13136972  0.18293258  0.12808702     0.35500
C856        C  0.12933496  0.18487302  0.10388631    -0.26500
C857        C  0.16253606  0.19382371  0.08942011    -0.15800
C858        C  0.19698005  0.19706028  0.10036458     0.36600
N859        N  0.23164021  0.20536457  0.08696047    -0.90000
H860        H  0.22617524  0.19909855  0.13266156     0.17700
H861        H  0.10278770  0.18306680  0.09691285     0.17700
N862        N  0.09765451  0.17733102  0.14132785    -0.89000
H863        H  0.23413624  0.17903640  0.09003326     0.35000
H864        H  0.25967139  0.23547721  0.09287152     0.40100
H865        H  0.11061028  0.20496882  0.15261579     0.39800
H866        H  0.08303091  0.14763945  0.15100397     0.34700
C867        C  0.12655765  0.18354331  0.40545416    -0.27100
C868        C  0.16294961  0.18953254  0.39683955    -0.15100
C869        C  0.19305014  0.19508419  0.41260855     0.35500
C870        C  0.18798543  0.19822164  0.43654699    -0.26500
C871        C  0.15295853  0.19585636  0.44552940    -0.15800
C872        C  0.12149864  0.18737293  0.42925083     0.36600
N873        N  0.08483934  0.18416174  0.43624824    -0.90000
H874        H  0.10260109  0.17821777  0.39341634     0.17700
H875        H  0.21345491  0.20578449  0.44799038     0.17700
N876        N  0.22858210  0.19710716  0.40436869    -0.89000
H877        H  0.08418614  0.20818818  0.42701766     0.35000
H878        H  0.05780460  0.15211052  0.43147379     0.40100
H879        H  0.22799061  0.17124607  0.41237140     0.39800
H880        H  0.25653711  0.22807718  0.40941577     0.34700
C881        C  0.22849984  0.05683774  0.41134662    -0.27100
C882        C  0.19136915  0.03248290  0.39776234    -0.15100
C883        C  0.15174467  0.01147943  0.40926288     0.35500
C884        C  0.14844033  0.51482732  0.43395088    -0.26500
C885        C  0.18665072  0.03189280  0.44748044    -0.15800
C886        C  0.22676235  0.05737912  0.43589897     0.36600
N887        N  0.26577531  0.08245707  0.44906027    -0.90000
H888        H  0.25904268  0.07507726  0.40279523     0.17700
H889        H  0.11698583  0.49320362  0.44119109     0.17700
N890        N  0.11151073  0.49228468  0.39703497    -0.89000
H891        H  0.29206297  0.10013342  0.43806787     0.35000
H892        H  0.26805056  0.05932122  0.45791714     0.40100
H893        H  0.11046740  0.46947085  0.38569178     0.39800
H894        H  0.10986606  0.51536906  0.38755165     0.34700
C895        C  0.15413162  0.01558993  0.10680652    -0.27100
C896        C  0.19061512  0.04021333  0.09270039    -0.15100
C897        C  0.23061867  0.06872841  0.10471619     0.35500
C898        C  0.23294820  0.06733163  0.12919872    -0.26500
C899        C  0.19635948  0.03855377  0.14258388    -0.15800
C900        C  0.15640763  0.01377365  0.13092799     0.36600
N901        N  0.11694998  0.98345634  0.14283584    -0.90000
H902        H  0.12771143  0.48050432  0.10599715     0.17700
H903        H  0.26373989  0.08823062  0.13772688     0.17700
N904        N  0.26983789  0.09757042  0.09252287    -0.89000
H905        H  0.11136270  0.00202632  0.15376427     0.35000
H906        H  0.11861744  0.96051180  0.15247782     0.40100
H907        H  0.26826479  0.12029083  0.08264234     0.39800
H908        H  0.27373427  0.07790107  0.08148878     0.34700
C909        C  0.02529089  0.33904573  0.13495370    -0.27100
C910        C  0.98468930  0.32300194  0.14209485    -0.15100
C911        C  0.95537483  0.31660079  0.12494620     0.35500
C912        C  0.96736569  0.32512098  0.10106527    -0.26500
C913        C  0.00888279  0.34192328  0.09388536    -0.15800
C914        C  0.03793946  0.34959344  0.11177637     0.36600
N915        N  0.08200634  0.37177718  0.10703194    -0.90000
H916        H  0.04898987  0.34677242  0.14786837     0.17700
H917        H  0.94418271  0.31886835  0.08826241     0.17700
N918        N  0.41421269  0.26579126  0.12705651    -0.89000
H919        H  0.09080964  0.35271228  0.11400833     0.35000
H920        H  0.09951983  0.40268108  0.11605640     0.40100
H921        H  0.40913976  0.23571996  0.13229410     0.39800
H922        H  0.39529235  0.25787114  0.11232159     0.34700
C923        C  0.45068329  0.29101337  0.41617683    -0.27100
C924        C  0.98909365  0.33129868  0.40075933    -0.15100
C925        C  0.03144867  0.35581915  0.40844966     0.35500
C926        C  0.04052354  0.35997911  0.43228541    -0.26500
C927        C  0.00938873  0.34675319  0.44958089    -0.15800
C928        C  0.96638274  0.32067928  0.44177430     0.36600
N929        N  0.42666027  0.28097646  0.45695396    -0.90000
H930        H  0.41780503  0.26771083  0.41062652     0.17700
H931        H  0.07308315  0.37484197  0.43705395     0.17700
N932        N  0.06565561  0.37948552  0.39202399    -0.89000
H933        H  0.43018869  0.26021333  0.46737851     0.35000
H934        H  0.39709623  0.25970840  0.44865609     0.40100
H935        H  0.06274958  0.35611629  0.38040200     0.39800
H936        H  0.09519766  0.39547275  0.40030075     0.34700
In937      In  0.48784555  0.83570438  0.32854948     1.36900
C938        C  0.48346410  0.81185493  0.28328068     0.76800
O939        O  0.42121689  0.81348146  0.32721987    -0.61600
O940        O  0.47381315  0.88413364  0.32473893    -0.52500
C941        C  0.98239506  0.82505373  0.37469300     0.69500
O942        O  0.98793846  0.80299922  0.36000001    -0.47400
C943        C  0.06642181  0.90694557  0.32838497     0.74200
O944        O  0.45279044  0.78520838  0.29677609    -0.59300
O945        O  0.03755288  0.91235151  0.32851340    -0.49300
O946        O  0.51577792  0.84391645  0.29380703    -0.55700
C947        C  0.43421865  0.85429805  0.32621440     0.84400
O948        O  0.97485795  0.85063906  0.36574482    -0.57600
O949        O  0.05405799  0.86639127  0.32974847    -0.60900
In950      In  0.48761875  0.83383615  0.21172256     1.36900
C951        C  0.48381746  0.81244052  0.25728497     0.76800
O952        O  0.05842080  0.87343425  0.21128458    -0.61600
O953        O  0.04115249  0.91867292  0.21268819    -0.52500
C954        C  0.98540739  0.82625660  0.16637937     0.69500
O955        O  0.49627569  0.79886239  0.18140866    -0.47400
C956        C  0.43065157  0.84866324  0.21608646     0.74200
O957        O  0.45632586  0.78245999  0.24303825    -0.59300
O958        O  0.46971590  0.87994503  0.21320484    -0.49300
O959        O  0.51347439  0.84804554  0.24755715    -0.55700
C960        C  0.07044651  0.91385620  0.21276580     0.84400
O961        O  0.97418589  0.84932885  0.17449508    -0.57600
O962        O  0.42006628  0.80869117  0.21645852    -0.60900
In963      In  0.19577166  0.52615834  0.21571843     1.36900
C964        C  0.22119925  0.52648815  0.25989428     0.76800
O965        O  0.22401646  0.59933510  0.21113807    -0.61600
O966        O  0.15708713  0.55154182  0.21699279    -0.52500
C967        C  0.21542969  0.53110154  0.17069596     0.69500
O968        O  0.23619250  0.56544504  0.18364526    -0.47400
C969        C  0.11467185  0.95327006  0.21494299     0.74200
O970        O  0.23623822  0.56194867  0.24844620    -0.59300
O971        O  0.12672624  0.49377271  0.21839609    -0.49300
O972        O  0.20106469  0.49146618  0.24741895    -0.55700
C973        C  0.18809834  0.59174551  0.21232276     0.84400
O974        O  0.19527650  0.49461841  0.18186004    -0.57600
O975        O  0.14601112  0.95378904  0.20876815    -0.60900
In976      In  0.18536543  0.52709119  0.32641118     1.36900
C977        C  0.21820250  0.52560096  0.28571648     0.76800
O978        O  0.14234861  0.94676393  0.33088009    -0.61600
O979        O  0.11812471  0.48713846  0.31827589    -0.52500
C980        C  0.19329195  0.53846600  0.37264820     0.69500
O981        O  0.21953609  0.53615633  0.36100923    -0.47400
C982        C  0.18297578  0.59439628  0.31849527     0.74200
O983        O  0.23507585  0.56115151  0.29777211    -0.59300
O984        O  0.15147870  0.55392024  0.31463397    -0.49300
O985        O  0.19132260  0.48995959  0.29670173    -0.55700
C986        C  0.11038138  0.94616587  0.32597766     0.84400
O987        O  0.16646970  0.53752082  0.36032633    -0.57600
O988        O  0.21729167  0.60092231  0.32459508    -0.60900
In989      In  0.16722116  0.69151200  0.31800195     1.36900
C990        C  0.17637574  0.69820345  0.27237513     0.76800
O991        O  0.21009525  0.67184415  0.31891947    -0.61600
O992        O  0.14150211  0.62089219  0.31664437    -0.52500
C993        C  0.17141980  0.69654380  0.36434244     0.69500
O994        O  0.20290484  0.72579489  0.35168735    -0.47400
C995        C  0.12012089  0.71795012  0.31607098     0.74200
O996        O  0.20660038  0.72889525  0.28547825    -0.59300
O997        O  0.10438341  0.67619614  0.31537908    -0.49300
O998        O  0.14357849  0.66640070  0.28288866    -0.55700
C999        C  0.17836345  0.63026328  0.31765966     0.84400
O1000       O  0.13880401  0.66550210  0.35303403    -0.57600
O1001       O  0.16039760  0.74624923  0.31782114    -0.60900
In1002     In  0.16720532  0.68460032  0.20126728     1.36900
C1003       C  0.17633550  0.69652538  0.24667614     0.76800
O1004       O  0.16561238  0.74360153  0.20164403    -0.61600
O1005       O  0.10733761  0.67522715  0.20496434    -0.52500
C1006       C  0.16171337  0.67796735  0.15478380     0.69500
O1007       O  0.19627169  0.70871048  0.16524381    -0.47400
C1008       C  0.18169280  0.62596050  0.20772100     0.74200
O1009       O  0.20682316  0.72542077  0.23331735    -0.59300
O1010       O  0.14425849  0.61513017  0.20681326    -0.49300
O1011       O  0.14325357  0.66347976  0.23647821    -0.55700
C1012       C  0.12552470  0.71764624  0.20503379     0.84400
O1013       O  0.13117399  0.65104660  0.16822937    -0.57600
O1014       O  0.21234139  0.66738415  0.20415076    -0.60900
In1015     In  0.05327510  0.76207325  0.21368344     1.36900
C1016       C  0.07024561  0.80551329  0.25318460     0.76800
O1017       O  0.48526812  0.72580382  0.21254594    -0.61600
O1018       O  0.50637632  0.68774077  0.22581958    -0.52500
C1019       C  0.05379188  0.77209974  0.16895839     0.69500
O1020       O  0.07788815  0.80650108  0.18190302    -0.47400
C1021       C  0.10098645  0.73477436  0.20922682     0.74200
O1022       O  0.04225388  0.80000374  0.23962847    -0.59300
O1023       O  0.06309048  0.70909251  0.21637750    -0.49300
O1024       O  0.09535158  0.79902556  0.24419577    -0.55700
C1025       C  0.47549977  0.68830484  0.21989316     0.84400
O1026       O  0.02718606  0.73596248  0.17926375    -0.57600
O1027       O  0.11564710  0.77559694  0.20586243    -0.60900
In1028     In  0.04464573  0.75854534  0.31750937     1.36900
C1029       C  0.06614901  0.80423962  0.27835298     0.76800
O1030       O  0.10742071  0.77248079  0.32080629    -0.61600
O1031       O  0.05408949  0.70591746  0.31038727    -0.52500
C1032       C  0.05360941  0.77407732  0.36236782     0.69500
O1033       O  0.06709033  0.80621925  0.34820777    -0.47400
C1034       C  0.47375639  0.68662147  0.31582195     0.74200
O1035       O  0.03126658  0.78881692  0.28802096    -0.59300
O1036       O  0.50512746  0.68687032  0.31030723    -0.49300
O1037       O  0.09275467  0.80527791  0.29102587    -0.55700
C1038       C  0.09320133  0.73249258  0.31553935     0.84400
O1039       O  0.03491213  0.73552246  0.35344805    -0.57600
O1040       O  0.48275120  0.72471705  0.32163740    -0.60900
In1041     In  0.35368405  0.56770486  0.32165057     1.36900
C1042       C  0.32142912  0.56276810  0.28002899     0.76800
O1043       O  0.39879613  0.64350583  0.32262367    -0.61600
O1044       O  0.42248501  0.60625571  0.31292299    -0.52500
C1045       C  0.33456799  0.56240970  0.36621965     0.69500
O1046       O  0.30951020  0.55765297  0.35041040    -0.47400
C1047       C  0.36009321  0.00373369  0.32943225     0.74200
O1048       O  0.31203063  0.52844295  0.29090978    -0.59300
O1049       O  0.39437110  0.04251260  0.32577287    -0.49300
O1050       O  0.33932797  0.59819906  0.29223616    -0.55700
C1051       C  0.43043909  0.64449559  0.31678318     0.84400
O1052       O  0.37041814  0.57545584  0.35908686    -0.57600
O1053       O  0.32663698  0.00146860  0.32986842    -0.60900
In1054     In  0.35603732  0.57053725  0.21321569     1.36900
C1055       C  0.32233354  0.56323829  0.25454972     0.76800
O1056       O  0.33103975  0.00094884  0.21208545    -0.61600
O1057       O  0.39809703  0.03844417  0.21782954    -0.52500
C1058       C  0.33304556  0.56511392  0.16896426     0.69500
O1059       O  0.30740661  0.55427418  0.18546309    -0.47400
C1060       C  0.43190829  0.64711101  0.21934687     0.74200
O1061       O  0.31519997  0.52990487  0.24350378    -0.59300
O1062       O  0.42326158  0.60923111  0.22478635    -0.49300
O1063       O  0.33932147  0.59879454  0.24270518    -0.55700
C1064       C  0.36260895  0.00023651  0.21491635     0.84400
O1065       O  0.37067318  0.58341746  0.17537339    -0.57600
O1066       O  0.40102695  0.64615453  0.21169708    -0.60900
In1067     In  0.34881021  0.88176514  0.22045215     1.36900
C1068       C  0.34062857  0.87790375  0.26540935     0.76800
O1069       O  0.36114571  0.82963622  0.22186125    -0.61600
O1070       O  0.41279507  0.89958749  0.21642317    -0.52500
C1071       C  0.31586281  0.85339975  0.17942940     0.69500
O1072       O  0.29191872  0.83829589  0.19712111    -0.47400
C1073       C  0.35779689  0.95788017  0.21592664     0.74200
O1074       O  0.31047746  0.84554354  0.25320703    -0.59300
O1075       O  0.38932469  0.95658257  0.21585462    -0.49300
O1076       O  0.37197881  0.90981673  0.25436960    -0.55700
C1077       C  0.40053060  0.85923903  0.21833001     0.84400
O1078       O  0.35529796  0.88002627  0.18325229    -0.57600
O1079       O  0.32169199  0.92008712  0.21780587    -0.60900
In1080     In  0.36088372  0.89504896  0.33437135     1.36900
C1081       C  0.34335850  0.88093654  0.29059272     0.76800
O1082       O  0.32553019  0.92472946  0.33549422    -0.61600
O1083       O  0.39392447  0.96817767  0.33216871    -0.52500
C1084       C  0.36210702  0.88856327  0.37934475     0.69500
O1085       O  0.32837404  0.85998575  0.36771486    -0.47400
C1086       C  0.40666056  0.86767043  0.32845357     0.74200
O1087       O  0.31467315  0.85303266  0.30494385    -0.59300
O1088       O  0.42237286  0.90937864  0.32931079    -0.49300
O1089       O  0.37806069  0.91412756  0.29918338    -0.55700
C1090       C  0.35964163  0.96440212  0.33263354     0.84400
O1091       O  0.39388130  0.91890927  0.36774063    -0.57600
O1092       O  0.36665476  0.83930041  0.33073028    -0.60900
C1093       C  0.23603896  0.71785928  0.95809529     0.85700
C1094       C  0.21417868  0.73053094  0.97562349    -0.54500
C1095       C  0.22007814  0.72546930  0.99848335     0.08700
C1096       C  0.25037173  0.71088620  0.00148417     0.19600
C1097       C  0.28224334  0.74383327  0.96462775    -0.55200
C1098       C  0.29097802  0.74896868  0.98758718     0.08800
C1099       C  0.21993584  0.67103608  0.96474920    -0.54800
C1100       C  0.22853065  0.66447708  0.98690381     0.09300
H1101       H  0.19300097  0.73897678  0.97070330     0.13800
H1102       H  0.25764321  0.70822373  0.01973321    -0.00400
H1103       H  0.30671291  0.76256772  0.95164043     0.14100
H1104       H  0.20601065  0.64603631  0.95118204     0.13900
C1105       C  0.36866947  0.88144566  0.98472772     0.85700
C1106       C  0.40575490  0.88384954  0.99649571    -0.54500
C1107       C  0.39430550  0.84702343  0.01003671     0.08700
C1108       C  0.34555050  0.82044702  0.01707559     0.19600
C1109       C  0.33566371  0.83215118  0.97772091    -0.55200
C1110       C  0.32281667  0.79900192  0.99399486     0.08800
C1111       C  0.34830121  0.88740544  0.00500328    -0.54800
C1112       C  0.33508176  0.85612594  0.02215509     0.09300
H1113       H  0.43804836  0.90672930  0.99020173     0.13800
H1114       H  0.33532869  0.79510953  0.03096416    -0.00400
H1115       H  0.32203569  0.82535520  0.96047874     0.14100
H1116       H  0.34385613  0.91382901  0.00562573     0.13900
C1117       C  0.16107646  0.70228948  0.05569382     0.85700
C1118       C  0.18299169  0.69704410  0.03591002    -0.54500
C1119       C  0.19557782  0.72748934  0.01830737     0.08700
C1120       C  0.18409189  0.76251561  0.02303862     0.19600
C1121       C  0.19272001  0.75182338  0.06277078    -0.55200
C1122       C  0.20611577  0.78466712  0.04636993     0.08800
C1123       C  0.12380030  0.69790215  0.04303359    -0.54800
C1124       C  0.13481991  0.73449314  0.02952833     0.09300
H1125       H  0.18779145  0.67088093  0.03566975     0.13800
H1126       H  0.19410474  0.78756954  0.00902553    -0.00400
H1127       H  0.20514187  0.75895669  0.08028919     0.14100
H1128       H  0.09131734  0.67402200  0.04891261     0.13900
C1129       C  0.29547077  0.86584944  0.08167894     0.85700
C1130       C  0.31346225  0.91321376  0.07450859    -0.54500
C1131       C  0.30201245  0.91866758  0.05270069     0.08700
C1132       C  0.27926695  0.87175454  0.03854182     0.19600
C1133       C  0.24882704  0.84064735  0.07571765    -0.55200
C1134       C  0.23901688  0.83473604  0.05280340     0.08800
C1135       C  0.31565033  0.85168188  0.06416768    -0.54800
C1136       C  0.30927716  0.85658519  0.04148195     0.09300
H1137       H  0.33025636  0.93865827  0.08785351     0.13800
H1138       H  0.27150362  0.87397729  0.02032805    -0.00400
H1139       H  0.22480243  0.82320904  0.08906713     0.14100
H1140       H  0.33749927  0.84404331  0.06895893     0.13900
C1141       C  0.07543634  0.76128884  0.07023703     0.85700
C1142       C  0.09943506  0.81019667  0.06183841    -0.54500
C1143       C  0.09219877  0.81346096  0.03929013     0.08700
C1144       C  0.08592174  0.77158472  0.02583538     0.19600
C1145       C  0.03353199  0.72825535  0.05502968    -0.55200
C1146       C  0.03897500  0.73369527  0.03160366     0.08800
C1147       C  0.10516198  0.75171867  0.06194196    -0.54800
C1148       C  0.11260818  0.75590643  0.03845072     0.09300
H1149       H  0.10765711  0.83679924  0.07404659     0.13800
H1150       H  0.09322008  0.77899557  0.00719667    -0.00400
H1151       H  0.00221496  0.70278826  0.06179706     0.14100
H1152       H  0.11855629  0.74094719  0.07412785     0.13900
C1153       C  0.03415037  0.85443792  0.06722142     0.85700
C1154       C  0.00881476  0.85752880  0.04845093    -0.54500
C1155       C  0.02352003  0.86155549  0.02621649     0.08700
C1156       C  0.06909097  0.87038439  0.02589012     0.19600
C1157       C  0.03701691  0.81782345  0.05782499    -0.55200
C1158       C  0.06152745  0.82772467  0.03813276     0.08800
C1159       C  0.07794279  0.89913918  0.06483998    -0.54800
C1160       C  0.09736932  0.91035042  0.04358692     0.09300
H1161       H  0.48193977  0.85540934  0.05399230     0.13800
H1162       H  0.08300645  0.87689797  0.00833069    -0.00400
H1163       H  0.02648828  0.78952565  0.06902560     0.14100
H1164       H  0.09141948  0.92178866  0.07960528     0.13900
C1165       C  0.48451998  0.71826237  0.97181739     0.85700
C1166       C  0.48718003  0.75742341  0.98281277    -0.54500
C1167       C  0.46231477  0.74766415  0.00232910     0.08700
C1168       C  0.45148984  0.70240998  0.01352651     0.19600
C1169       C  0.01710901  0.71423241  0.99083157    -0.55200
C1170       C  0.49529341  0.70697496  0.01209613     0.08800
C1171       C  0.43824087  0.67626105  0.97401445    -0.54800
C1172       C  0.41994212  0.66409347  0.99554558     0.09300
H1173       H  0.50013408  0.78720909  0.97232571     0.13800
H1174       H  0.43849156  0.69604191  0.03131461    -0.00400
H1175       H  0.04588891  0.71771695  0.98665522     0.14100
H1176       H  0.42178191  0.65513466  0.95891653     0.13900
C1177       C  0.45126931  0.81657443  0.96947361     0.85700
C1178       C  0.42276907  0.82791101  0.97775796    -0.54500
C1179       C  0.41505545  0.82378495  0.00118617     0.08700
C1180       C  0.44017326  0.80617620  0.01389360     0.19600
C1181       C  0.49321151  0.84855260  0.98488329    -0.55200
C1182       C  0.48746850  0.84268288  0.00827305     0.08800
C1183       C  0.42670911  0.76759048  0.97784736    -0.54800
C1184       C  0.43295484  0.76373525  0.00053888     0.09300
H1185       H  0.41173085  0.84145501  0.96579503     0.13800
H1186       H  0.43246756  0.79874421  0.03249537    -0.00400
H1187       H  0.02741606  0.87085032  0.97698430     0.14100
H1188       H  0.41922763  0.74128828  0.96551575     0.13900
C1189       C  0.19618568  0.55176620  0.96687508     0.85700
C1190       C  0.24444291  0.58011154  0.96317443    -0.54500
C1191       C  0.27068521  0.60098603  0.98230641     0.08700
C1192       C  0.24421057  0.60060435  0.00238671     0.19600
C1193       C  0.18754450  0.52329137  0.98803847    -0.55200
C1194       C  0.21133848  0.54788873  0.00705344     0.08800
C1195       C  0.18733099  0.58398267  0.97643410    -0.54800
C1196       C  0.21662562  0.61627517  0.99199803     0.09300
H1197       H  0.25482345  0.57697742  0.94649207     0.13800
H1198       H  0.26394872  0.62094116  0.01760717    -0.00400
H1199       H  0.16143365  0.48767960  0.98881840     0.14100
H1200       H  0.16178129  0.58425377  0.96931482     0.13900
C1201       C  0.33300158  0.55534213  0.96911861     0.85700
C1202       C  0.30600506  0.52228234  0.98869559    -0.54500
C1203       C  0.30612894  0.54183222  0.00913624     0.08700
C1204       C  0.33131409  0.59540830  0.00629971     0.19600
C1205       C  0.31871451  0.58547687  0.96540302    -0.55200
C1206       C  0.31017974  0.60063234  0.98439873     0.08800
C1207       C  0.37598250  0.58595550  0.98137846    -0.54800
C1208       C  0.37877609  0.61430172  0.99829398     0.09300
H1209       H  0.29322786  0.48698314  0.98721982     0.13800
H1210       H  0.33104414  0.61249879  0.02208215    -0.00400
H1211       H  0.31361689  0.59191938  0.94791406     0.14100
H1212       H  0.40409390  0.59034371  0.97477595     0.13900
C1213       C  0.29900329  0.00866357  0.07637699     0.85700
C1214       C  0.32428102  0.99293240  0.06708529    -0.54500
C1215       C  0.30569510  0.96319045  0.04845062     0.08700
C1216       C  0.27274526  0.97069177  0.03592623     0.19600
C1217       C  0.29941667  0.52956292  0.05390121    -0.55200
C1218       C  0.28969132  0.51297738  0.03147683     0.08800
C1219       C  0.25283279  0.96519890  0.07438963    -0.54800
C1220       C  0.23539553  0.95625288  0.05309090     0.09300
H1221       H  0.35198734  0.00098808  0.07652026     0.13800
H1222       H  0.26054665  0.95288646  0.01906984    -0.00400
H1223       H  0.31705049  0.56549286  0.05752106     0.14100
H1224       H  0.24366098  0.93595403  0.08465126     0.13900
C1225       C  0.18669809  0.51705000  0.07089932     0.85700
C1226       C  0.14306357  0.98892603  0.05710704    -0.54500
C1227       C  0.13824593  0.95930560  0.04047704     0.08700
C1228       C  0.18366390  0.97662552  0.03086159     0.19600
C1229       C  0.20397108  0.99322089  0.07058811    -0.55200
C1230       C  0.20674669  0.97267949  0.05156515     0.08800
C1231       C  0.20862102  0.54799241  0.05010759    -0.54800
C1232       C  0.20162855  0.52478303  0.02976030     0.09300
H1233       H  0.11584806  0.98665866  0.06339556     0.13800
H1234       H  0.18211271  0.95830133  0.01514603    -0.00400
H1235       H  0.21565654  0.99318768  0.08730871     0.14100
H1236       H  0.22395786  0.58409730  0.05083947     0.13900
C1237       C  0.23381540  0.58239654  0.57578516     0.85700
C1238       C  0.21950103  0.61001305  0.56794341    -0.54500
C1239       C  0.23078967  0.62723517  0.54558260     0.08700
C1240       C  0.25737006  0.61154658  0.53345152     0.19600
C1241       C  0.21470908  0.54420725  0.55628953    -0.55200
C1242       C  0.22621778  0.55935179  0.53406149     0.08800
C1243       C  0.28150451  0.61792651  0.57226771    -0.54800
C1244       C  0.29420172  0.62098128  0.55023903     0.09300
H1245       H  0.20183444  0.61570373  0.57968860     0.13800
H1246       H  0.27002844  0.62682919  0.51624739    -0.00400
H1247       H  0.19033489  0.50853945  0.55900175     0.14100
H1248       H  0.30373670  0.62837357  0.58661508     0.13900
C1249       C  0.33771534  0.55166442  0.56592010     0.85700
C1250       C  0.38270111  0.58712789  0.55741090    -0.54500
C1251       C  0.38743729  0.61506852  0.53995453     0.08700
C1252       C  0.34250708  0.59617564  0.52867489     0.19600
C1253       C  0.31612678  0.57440438  0.56737223    -0.55200
C1254       C  0.31773623  0.59881669  0.54869445     0.08800
C1255       C  0.31684076  0.52100553  0.54501133    -0.54800
C1256       C  0.31792477  0.54253903  0.52514975     0.09300
H1257       H  0.40971813  0.59194718  0.56613148     0.13800
H1258       H  0.34449863  0.61446356  0.51287927    -0.00400
H1259       H  0.29742696  0.56736957  0.58279450     0.14100
H1260       H  0.30392530  0.48559950  0.54582740     0.13900
C1261       C  0.29698683  0.00084919  0.46562070     0.85700
C1262       C  0.24943137  0.96319926  0.46767691    -0.54500
C1263       C  0.23242109  0.95336645  0.48906238     0.08700
C1264       C  0.26922460  0.96451564  0.50654820     0.19600
C1265       C  0.30546302  0.53086819  0.48147335    -0.55200
C1266       C  0.29646686  0.51412637  0.50348992     0.08800
C1267       C  0.31272802  0.97420963  0.47289213    -0.54800
C1268       C  0.29836687  0.95218780  0.49415450     0.09300
H1269       H  0.23130339  0.93701136  0.45458117     0.13800
H1270       H  0.25612129  0.94730536  0.52334570    -0.00400
H1271       H  0.32453102  0.56693825  0.47819635     0.14100
H1272       H  0.33058016  0.96996064  0.46032899     0.13900
C1273       C  0.18150805  0.51746993  0.47280494     0.85700
C1274       C  0.20937036  0.54993689  0.49198992    -0.54500
C1275       C  0.20730993  0.52972036  0.51248838     0.08700
C1276       C  0.17973606  0.97433481  0.51089359     0.19600
C1277       C  0.19322631  0.98041411  0.47034741    -0.55200
C1278       C  0.19941280  0.96455436  0.49032761     0.08800
C1279       C  0.13959497  0.98763975  0.48431957    -0.54800
C1280       C  0.13371727  0.95867790  0.50160200     0.09300
H1281       H  0.22511967  0.58583200  0.48982963     0.13800
H1282       H  0.17824577  0.95798183  0.52735810    -0.00400
H1283       H  0.19902297  0.97333772  0.45314752     0.14100
H1284       H  0.11360349  0.98763126  0.47781226     0.13900
C1285       C  0.18239344  0.67939810  0.56248051     0.85700
C1286       C  0.22975196  0.71178908  0.56979433    -0.54500
C1287       C  0.25900832  0.72744505  0.55247104     0.08700
C1288       C  0.23726829  0.70361182  0.52941524     0.19600
C1289       C  0.17778365  0.70438315  0.54345346    -0.55200
C1290       C  0.20470480  0.71635558  0.52537089     0.08800
C1291       C  0.17683855  0.63989047  0.54891039    -0.54800
C1292       C  0.21146188  0.65150021  0.53614305     0.09300
H1293       H  0.23816967  0.72339533  0.58755618     0.13800
H1294       H  0.25953917  0.71343461  0.51485596    -0.00400
H1295       H  0.15333424  0.70972396  0.54361065     0.14100
H1296       H  0.15276236  0.60474166  0.55287472     0.13900
C1297       C  0.34672528  0.84460869  0.57474916     0.85700
C1298       C  0.32718332  0.85738502  0.55642480    -0.54500
C1299       C  0.32032643  0.83658302  0.53547591     0.08700
C1300       C  0.33145021  0.80136224  0.53554821     0.19600
C1301       C  0.31636170  0.79250810  0.57611635    -0.55200
C1302       C  0.30412098  0.76957793  0.55549356     0.08800
C1303       C  0.38670246  0.85530169  0.56212554    -0.54800
C1304       C  0.37918375  0.82637338  0.54401756     0.09300
H1305       H  0.32289784  0.88364054  0.55915808     0.13800
H1306       H  0.32516758  0.78367748  0.51873357    -0.00400
H1307       H  0.30279459  0.77596103  0.59253338     0.14100
H1308       H  0.41793585  0.87673584  0.56985197     0.13900
C1309       C  0.17054006  0.72625437  0.46480292     0.85700
C1310       C  0.13019500  0.71418917  0.47754180    -0.54500
C1311       C  0.13702528  0.74354934  0.49514316     0.08700
C1312       C  0.18508290  0.76941435  0.50401513     0.19600
C1313       C  0.19955950  0.77856953  0.46350067    -0.55200
C1314       C  0.21243903  0.80171558  0.48412601     0.08800
C1315       C  0.19122294  0.71477619  0.48300036    -0.54800
C1316       C  0.19725610  0.73484068  0.50408199     0.09300
H1317       H  0.09886692  0.69251588  0.46997098     0.13800
H1318       H  0.19105112  0.78702464  0.52083564    -0.00400
H1319       H  0.21184872  0.79541637  0.44700208     0.14100
H1320       H  0.19647222  0.68927686  0.48012946     0.13900
C1321       C  0.33429606  0.88482387  0.47555396     0.85700
C1322       C  0.33838922  0.86180027  0.49564462    -0.54500
C1323       C  0.31298089  0.85396675  0.51384864     0.08700
C1324       C  0.28256887  0.86923589  0.50910811     0.19600
C1325       C  0.28678980  0.85469685  0.46912179    -0.55200
C1326       C  0.25861805  0.84309805  0.48662856     0.08800
C1327       C  0.34340308  0.92757180  0.48712467    -0.54800
C1328       C  0.31175288  0.92095370  0.50104012     0.09300
H1329       H  0.36203761  0.85533534  0.49617000     0.13800
H1330       H  0.26146429  0.86253424  0.52383953    -0.00400
H1331       H  0.27726103  0.84087334  0.45178038     0.14100
H1332       H  0.37010011  0.96145502  0.48239081     0.13900
C1333       C  0.06975666  0.77135009  0.46243904     0.85700
C1334       C  0.03017402  0.73369150  0.47770864    -0.54500
C1335       C  0.03759195  0.73652758  0.50107080     0.08700
C1336       C  0.08474118  0.77541017  0.50653477     0.19600
C1337       C  0.09143053  0.81822095  0.47344683    -0.55200
C1338       C  0.08662209  0.81739294  0.49675466     0.08800
C1339       C  0.10297597  0.76485446  0.46763187    -0.54800
C1340       C  0.11245383  0.76486609  0.49056859     0.09300
H1341       H  0.99873639  0.70740445  0.47134746     0.13800
H1342       H  0.09453402  0.78105662  0.52495641    -0.00400
H1343       H  0.09617725  0.84550017  0.46313177     0.14100
H1344       H  0.11747747  0.75932876  0.45339982     0.13900
C1345       C  0.02479157  0.85519200  0.47516001     0.85700
C1346       C  0.06970816  0.89946909  0.47756213    -0.54500
C1347       C  0.09047937  0.91047264  0.49861935     0.08700
C1348       C  0.06212467  0.87016578  0.51578922     0.19600
C1349       C  0.02591719  0.81718510  0.48416961    -0.55200
C1350       C  0.05377782  0.82775318  0.50232138     0.08800
C1351       C  0.00130142  0.85984209  0.49437187    -0.54800
C1352       C  0.01658211  0.86249769  0.51644776     0.09300
H1353       H  0.08331031  0.92155848  0.46275103     0.13800
H1354       H  0.07690679  0.87582535  0.53313228    -0.00400
H1355       H  0.01350299  0.78853149  0.47278217     0.14100
H1356       H  0.46718363  0.84975851  0.49166202     0.13900
C1357       C  0.49631405  0.72186593  0.56226784     0.85700
C1358       C  0.02001468  0.71789553  0.54193439    -0.54500
C1359       C  0.50134937  0.70870891  0.52139818     0.08700
C1360       C  0.45578577  0.70062744  0.52230603     0.19600
C1361       C  0.49455992  0.75868942  0.55105569    -0.55200
C1362       C  0.46477180  0.74500201  0.53346757     0.08800
C1363       C  0.45058201  0.67883540  0.56219079    -0.54800
C1364       C  0.42928672  0.66379947  0.54132541     0.09300
H1365       H  0.04970810  0.72264237  0.54512471     0.13800
H1366       H  0.43926046  0.69134644  0.50527206    -0.00400
H1367       H  0.51096894  0.79124909  0.55878034     0.14100
H1368       H  0.43617439  0.66139403  0.57835047     0.13900
C1369       C  0.44438033  0.79585232  0.57491070     0.85700
C1370       C  0.42503924  0.75024401  0.56270229    -0.54500
C1371       C  0.43057421  0.75343896  0.53940348     0.08700
C1372       C  0.43126994  0.79553316  0.53080409     0.19600
C1373       C  0.48442971  0.83485507  0.56026461    -0.55200
C1374       C  0.47781517  0.83455227  0.53674805     0.08800
C1375       C  0.40966216  0.79993371  0.57000034    -0.54800
C1376       C  0.40212213  0.80321777  0.54729628     0.09300
H1377       H  0.42035021  0.72190064  0.57144118     0.13800
H1378       H  0.42189870  0.79135832  0.51234985    -0.00400
H1379       H  0.02148990  0.86253035  0.56601849     0.14100
H1380       H  0.39330307  0.80255577  0.58434162     0.13900
In1381     In  0.97694046  0.81976585  0.72001182     1.36900
C1382       C  0.95867806  0.77119281  0.75784422     0.76800
O1383       O  0.04532648  0.85163142  0.71338172    -0.61600
O1384       O  0.02852531  0.88753370  0.73376247    -0.52500
C1385       C  0.46071780  0.80390652  0.67626377     0.69500
O1386       O  0.45481609  0.77436655  0.69049861    -0.47400
C1387       C  0.42526014  0.84923009  0.72571639     0.74200
O1388       O  0.99337546  0.78914327  0.74744026    -0.59300
O1389       O  0.46501096  0.87588216  0.72864977    -0.49300
O1390       O  0.93045757  0.76937408  0.74627212    -0.55700
C1391       C  0.05724439  0.88800855  0.72354067     0.84400
O1392       O  0.98202865  0.84409841  0.68487684    -0.57600
O1393       O  0.40966443  0.80820436  0.72196686    -0.60900
In1394     In  0.48030427  0.83413320  0.82602976     1.36900
C1395       C  0.95640890  0.76782804  0.78311665     0.76800
O1396       O  0.41738438  0.81907679  0.83329378    -0.61600
O1397       O  0.46968621  0.88628748  0.82357934    -0.52500
C1398       C  0.47741266  0.81747620  0.87025940     0.69500
O1399       O  0.45617023  0.78554317  0.85569020    -0.47400
C1400       C  0.05346392  0.88011015  0.81528177     0.74200
O1401       O  0.49477362  0.80140089  0.79909648    -0.59300
O1402       O  0.02215048  0.88024601  0.81000822    -0.49300
O1403       O  0.92985492  0.76996970  0.79384279    -0.55700
C1404       C  0.43169791  0.85985236  0.83039075     0.84400
O1405       O  0.50231866  0.85610234  0.86175169    -0.57600
O1406       O  0.04455375  0.84301169  0.82279438    -0.60900
In1407     In  0.17865202  0.50876412  0.71515882     1.36900
C1408       C  0.20090624  0.50573042  0.75839722     0.76800
O1409       O  0.21384721  0.58391862  0.71222625    -0.61600
O1410       O  0.14590341  0.54076464  0.71242297    -0.52500
C1411       C  0.20541809  0.51692745  0.67195373     0.69500
O1412       O  0.23132272  0.53517833  0.68878191    -0.47400
C1413       C  0.10029671  0.92937571  0.72171884     0.74200
O1414       O  0.18661373  0.47287975  0.74461655    -0.59300
O1415       O  0.10965528  0.96688825  0.72883538    -0.49300
O1416       O  0.21171547  0.54172189  0.74880280    -0.55700
C1417       C  0.17986781  0.58038571  0.71074134     0.84400
O1418       O  0.16741073  0.48844955  0.67780133    -0.57600
O1419       O  0.12962046  0.93084541  0.71144765    -0.60900
In1420     In  0.16198439  0.49949258  0.82340756     1.36900
C1421       C  0.19728839  0.50152234  0.78380192     0.76800
O1422       O  0.12829426  0.92346970  0.82203200    -0.61600
O1423       O  0.10361086  0.95927656  0.81070327    -0.52500
C1424       C  0.16816592  0.50280391  0.86943025     0.69500
O1425       O  0.19214664  0.49757617  0.85739250    -0.47400
C1426       C  0.17232080  0.57639807  0.81918266     0.74200
O1427       O  0.17015475  0.46458695  0.79365479    -0.59300
O1428       O  0.13686292  0.53853108  0.81542644    -0.49300
O1429       O  0.21347982  0.53584020  0.79665095    -0.55700
C1430       C  0.09651090  0.92173914  0.81532638     0.84400
O1431       O  0.14133024  0.50337766  0.85790972    -0.57600
O1432       O  0.20297438  0.57493861  0.82407579    -0.60900
In1433     In  0.17271151  0.68450358  0.70365260     1.36900
C1434       C  0.18752154  0.70040132  0.74772079     0.76800
O1435       O  0.16617719  0.74043022  0.70375588    -0.61600
O1436       O  0.11151537  0.67019150  0.70758833    -0.52500
C1437       C  0.16456824  0.68110856  0.65859327     0.69500
O1438       O  0.19814248  0.71478137  0.66852305    -0.47400
C1439       C  0.17884374  0.61877375  0.70744688     0.74200
O1440       O  0.21744355  0.72694374  0.73356324    -0.59300
O1441       O  0.14358852  0.61296684  0.70780771    -0.49300
O1442       O  0.15252638  0.66816643  0.73883317    -0.55700
C1443       C  0.12622149  0.71157071  0.70637151     0.84400
O1444       O  0.13712823  0.64972545  0.67179800    -0.57600
O1445       O  0.21199365  0.65909394  0.70420687    -0.60900
In1446     In  0.18415438  0.69440371  0.81810266     1.36900
C1447       C  0.18990626  0.70302725  0.77300405     0.76800
O1448       O  0.21299372  0.65715569  0.81823788    -0.61600
O1449       O  0.14519316  0.61937927  0.81896988    -0.52500
C1450       C  0.21461548  0.72176881  0.85965691     0.69500
O1451       O  0.23853585  0.74195322  0.84221503    -0.47400
C1452       C  0.13274445  0.71614951  0.82404516     0.74200
O1453       O  0.22254931  0.73087837  0.78538612    -0.59300
O1454       O  0.12074383  0.67574910  0.82496713    -0.49300
O1455       O  0.15667807  0.67404985  0.78395367    -0.55700
C1456       C  0.17707362  0.61878422  0.81863193     0.84400
O1457       O  0.17680855  0.68838736  0.85540894    -0.57600
O1458       O  0.17174732  0.74620733  0.81982513    -0.60900
In1459     In  0.03947991  0.73600987  0.70901693     1.36900
C1460       C  0.04935505  0.75291266  0.75530430     0.76800
O1461       O  0.44904861  0.68653104  0.70450109    -0.61600
O1462       O  0.46777595  0.64568932  0.71694986    -0.52500
C1463       C  0.04104777  0.74714427  0.66210907     0.69500
O1464       O  0.04947106  0.77843403  0.67627450    -0.47400
C1465       C  0.09713680  0.72317683  0.70768246     0.74200
O1466       O  0.06008460  0.78495430  0.74125372    -0.59300
O1467       O  0.05789979  0.69161709  0.70895122    -0.49300
O1468       O  0.03586802  0.71613924  0.74533063    -0.55700
C1469       C  0.43813803  0.64785491  0.71061055     0.84400
O1470       O  0.03267561  0.71242603  0.67226192    -0.57600
O1471       O  0.10806793  0.76336386  0.70736622    -0.60900
In1472     In  0.04315038  0.73715995  0.82761316     1.36900
C1473       C  0.04951966  0.75298800  0.78135116     0.76800
O1474       O  0.11182670  0.76553199  0.82561032    -0.61600
O1475       O  0.06350944  0.69383920  0.82990111    -0.52500
C1476       C  0.04358148  0.75377408  0.87343217     0.69500
O1477       O  0.04185459  0.77745746  0.85799801    -0.47400
C1478       C  0.44015098  0.64829736  0.82130632     0.74200
O1479       O  0.06369628  0.78596583  0.79554212    -0.59300
O1480       O  0.47098491  0.64666047  0.81766587    -0.49300
O1481       O  0.03346781  0.71560950  0.79116633    -0.55700
C1482       C  0.10228487  0.72594510  0.82685935     0.84400
O1483       O  0.04969402  0.72636743  0.86532257    -0.57600
O1484       O  0.44959718  0.68659825  0.82689669    -0.60900
In1485     In  0.31677384  0.53332773  0.70989880     1.36900
C1486       C  0.28883366  0.53088970  0.75324125     0.76800
O1487       O  0.30299425  0.98499588  0.71861238    -0.61600
O1488       O  0.37052853  0.03579358  0.71838133    -0.52500
C1489       C  0.30177087  0.52786126  0.66400561     0.69500
O1490       O  0.31522522  0.56303276  0.67573884    -0.47400
C1491       C  0.39449881  0.60758107  0.71030963     0.74200
O1492       O  0.27393663  0.49590313  0.74118512    -0.59300
O1493       O  0.38538060  0.56962282  0.71613331    -0.49300
O1494       O  0.30901523  0.56644204  0.74138369    -0.55700
C1495       C  0.33962951  0.99418571  0.71898659     0.84400
O1496       O  0.28482324  0.49300302  0.67622760    -0.57600
O1497       O  0.36360088  0.60773451  0.70410519    -0.60900
In1498     In  0.32166474  0.53219136  0.82147263     1.36900
C1499       C  0.29042079  0.53069269  0.77918094     0.76800
O1500       O  0.36528677  0.60673379  0.82618980    -0.61600
O1501       O  0.38881536  0.57119025  0.81226327    -0.52500
C1502       C  0.31985048  0.53073463  0.86841941     0.69500
O1503       O  0.29034337  0.52762802  0.85669911    -0.47400
C1504       C  0.34425019  0.00043742  0.82921527     0.74200
O1505       O  0.27661959  0.49523340  0.79056391    -0.59300
O1506       O  0.37464370  0.03886685  0.82185874    -0.49300
O1507       O  0.31239404  0.56633019  0.79130026    -0.55700
C1508       C  0.39680064  0.60797306  0.81958097     0.84400
O1509       O  0.34754898  0.53372203  0.85600717    -0.57600
O1510       O  0.30976880  0.99492348  0.83344033    -0.60900
In1511     In  0.35767204  0.89770443  0.72135467     1.36900
C1512       C  0.35178399  0.89458195  0.76751628     0.76800
O1513       O  0.35952827  0.83946605  0.72412625    -0.61600
O1514       O  0.41811445  0.90833157  0.72426877    -0.52500
C1515       C  0.35399959  0.88612046  0.67498757     0.69500
O1516       O  0.32156421  0.86072116  0.68793934    -0.47400
C1517       C  0.34598650  0.95926781  0.71968902     0.74200
O1518       O  0.32057637  0.86364936  0.75497597    -0.59300
O1519       O  0.38313024  0.96920788  0.72001354    -0.49300
O1520       O  0.38393622  0.92574077  0.75623516    -0.55700
C1521       C  0.40004465  0.86592924  0.72505554     0.84400
O1522       O  0.38715047  0.91735306  0.68592197    -0.57600
O1523       O  0.31478140  0.91740004  0.71983795    -0.60900
In1524     In  0.36408347  0.90754485  0.83921905     1.36900
C1525       C  0.35332803  0.89647034  0.79338588     0.76800
O1526       O  0.31940053  0.92487005  0.83718624    -0.61600
O1527       O  0.38771879  0.97686527  0.83421177    -0.52500
C1528       C  0.36816798  0.91264363  0.88604396     0.69500
O1529       O  0.33404379  0.88208600  0.87519369    -0.47400
C1530       C  0.40673374  0.87613937  0.83487048     0.74200
O1531       O  0.32350152  0.86764825  0.80708394    -0.59300
O1532       O  0.42445669  0.91843583  0.83529198    -0.49300
O1533       O  0.38691324  0.92912646  0.80341571    -0.55700
C1534       C  0.35029092  0.96614354  0.83357932     0.84400
O1535       O  0.39887979  0.94016460  0.87282859    -0.57600
O1536       O  0.36670549  0.84949879  0.83828108    -0.60900
C1537       C  0.43616005  0.75760695  0.61447145    -0.27100
C1538       C  0.45174783  0.79748988  0.60137752    -0.15100
C1539       C  0.46910063  0.83828475  0.61410897     0.35500
C1540       C  0.46976530  0.83804042  0.63814309    -0.26500
C1541       C  0.45520320  0.79884424  0.65080885    -0.15800
C1542       C  0.43808271  0.75818276  0.63884011     0.36600
N1543       N  0.42222589  0.71731960  0.65125094    -0.90000
H1544       H  0.42125911  0.72490213  0.60659276     0.17700
H1545       H  0.99116570  0.87596444  0.64645337     0.17700
N1546       N  0.48689883  0.88131242  0.60355646    -0.89000
H1547       H  0.39018090  0.69340573  0.64678750     0.35000
H1548       H  0.43885847  0.70492605  0.64569214     0.40100
H1549       H  0.46599551  0.87873215  0.59138309     0.39800
H1550       H  0.01886527  0.90064751  0.59393091     0.34700
C1551       C  0.02859790  0.70964424  0.62303651    -0.27100
C1552       C  0.03877002  0.74784925  0.63573129    -0.15100
C1553       C  0.53394643  0.77463291  0.62503977     0.35500
C1554       C  0.52710846  0.77086251  0.60063257    -0.26500
C1555       C  0.51515848  0.73172702  0.58766152    -0.15800
C1556       C  0.02047902  0.70464226  0.59890714     0.36600
N1557       N  0.01353567  0.66564533  0.58801416    -0.90000
H1558       H  0.02643114  0.68252058  0.63203262     0.17700
H1559       H  0.53096153  0.79920805  0.59239383     0.17700
N1560       N  0.54962708  0.81638390  0.63685383    -0.89000
H1561       H  0.03685893  0.67631961  0.57549687     0.35000
H1562       H  0.98353939  0.64562233  0.58025818     0.40100
H1563       H  0.52710568  0.81018593  0.64895672     0.39800
H1564       H  0.55320798  0.84028070  0.62532119     0.34700
C1565       C  0.38981672  0.88766671  0.61238466    -0.27100
C1566       C  0.35116619  0.86376316  0.59972777    -0.15100
C1567       C  0.31409918  0.85063246  0.61214398     0.35500
C1568       C  0.31570233  0.85829265  0.63630415    -0.26500
C1569       C  0.35383649  0.87992578  0.64901537    -0.15800
C1570       C  0.39148886  0.89531688  0.63664309     0.36600
N1571       N  0.43131257  0.91706846  0.64886285    -0.90000
H1572       H  0.41902455  0.89906414  0.60391547     0.17700
H1573       H  0.28654845  0.84663974  0.64522271     0.17700
N1574       N  0.27384187  0.82698831  0.60041518    -0.89000
H1575       H  0.45600003  0.92681140  0.63740999     0.35000
H1576       H  0.42873914  0.89302256  0.65989522     0.40100
H1577       H  0.26145090  0.84521229  0.60279495     0.39800
H1578       H  0.25330214  0.79539002  0.60824621     0.34700
C1579       C  0.14102468  0.63529321  0.62266846    -0.27100
C1580       C  0.15743562  0.67694872  0.63331252    -0.15100
C1581       C  0.16500117  0.71271238  0.61975778     0.35500
C1582       C  0.16368092  0.70870306  0.59543650    -0.26500
C1583       C  0.15622464  0.67000306  0.58449313    -0.15800
C1584       C  0.13955005  0.63109133  0.59847598     0.36600
N1585       N  0.12048339  0.58712296  0.58867131    -0.90000
H1586       H  0.13106120  0.60613967  0.63318496     0.17700
H1587       H  0.17443962  0.73834164  0.58517019     0.17700
N1588       N  0.17502824  0.75319349  0.63069152    -0.89000
H1589       H  0.08869603  0.56609416  0.59386603     0.35000
H1590       H  0.13556747  0.57385965  0.59567189     0.40100
H1591       H  0.14843952  0.74417157  0.64028965     0.39800
H1592       H  0.17958245  0.77626321  0.61822115     0.34700
C1593       C  0.36344259  0.56712836  0.60739420    -0.27100
C1594       C  0.33467338  0.53398770  0.59087182    -0.15100
C1595       C  0.29568308  0.49552617  0.59972219     0.35500
C1596       C  0.28561192  0.49297609  0.62356179    -0.26500
C1597       C  0.31246077  0.52918938  0.63891689    -0.15800
C1598       C  0.35295695  0.56530207  0.63085563     0.36600
N1599       N  0.38373731  0.60041655  0.64659635    -0.90000
H1600       H  0.39327089  0.59747128  0.60183681     0.17700
H1601       H  0.25585046  0.46325851  0.62980789     0.17700
N1602       N  0.26490057  0.46011539  0.58437640    -0.89000
H1603       H  0.41186030  0.62486753  0.63798196     0.35000
H1604       H  0.39184978  0.58554013  0.65867361     0.40100
H1605       H  0.23703467  0.45780473  0.58530284     0.39800
H1606       H  0.25799289  0.42958678  0.59035559     0.34700
C1607       C  0.20547683  0.51895112  0.60617625    -0.27100
C1608       C  0.22471722  0.56528441  0.60133312    -0.15100
C1609       C  0.23970740  0.59523947  0.62094133     0.35500
C1610       C  0.23709455  0.57890149  0.64337057    -0.26500
C1611       C  0.21652991  0.53274441  0.64767424    -0.15800
C1612       C  0.19940148  0.50244323  0.62879270     0.36600
N1613       N  0.17528249  0.45443354  0.63201165    -0.90000
H1614       H  0.19432904  0.49395229  0.59275633     0.17700
H1615       H  0.24837216  0.60225004  0.65789644     0.17700
N1616       N  0.25607392  0.64198234  0.61929128    -0.89000
H1617       H  0.13080640  0.94385862  0.64117026     0.35000
H1618       H  0.19297026  0.44784229  0.64231574     0.40100
H1619       H  0.23231946  0.64426209  0.61318757     0.39800
H1620       H  0.28258486  0.66011241  0.60863673     0.34700
C1621       C  0.28747655  0.50608564  0.90836082    -0.27100
C1622       C  0.32372785  0.53156192  0.89448579    -0.15100
C1623       C  0.36408764  0.55635839  0.90589025     0.35500
C1624       C  0.36692241  0.55887949  0.93027345    -0.26500
C1625       C  0.33052325  0.53593030  0.94451892    -0.15800
C1626       C  0.29040531  0.50695438  0.93279409     0.36600
N1627       N  0.25143925  0.47927864  0.94523453    -0.90000
H1628       H  0.25635715  0.48520709  0.90017226     0.17700
H1629       H  0.39832987  0.58173829  0.93770397     0.17700
N1630       N  0.40324385  0.58160338  0.89327946    -0.89000
H1631       H  0.24818338  0.49968995  0.95613628     0.35000
H1632       H  0.25214118  0.45593246  0.95504412     0.40100
H1633       H  0.40335345  0.60404253  0.88215640     0.39800
H1634       H  0.40548200  0.55907258  0.88358298     0.34700
C1635       C  0.17113195  0.48283859  0.91082197    -0.27100
C1636       C  0.17170442  0.51162731  0.89473807    -0.15100
C1637       C  0.17065070  0.54706344  0.90289393     0.35500
C1638       C  0.17197408  0.55484024  0.92674862    -0.26500
C1639       C  0.17420559  0.52831743  0.94342536    -0.15800
C1640       C  0.17108365  0.48990964  0.93500551     0.36600
N1641       N  0.16659282  0.45733985  0.95086065    -0.90000
H1642       H  0.16941715  0.45401903  0.90452098     0.17700
H1643       H  0.17388119  0.58397129  0.93194998     0.17700
N1644       N  0.16976134  0.57636883  0.88677451    -0.89000
H1645       H  0.15582849  0.94040985  0.94782224     0.35000
H1646       H  0.13636854  0.44041250  0.95816717     0.40100
H1647       H  0.19832019  0.59410932  0.87755735     0.39800
H1648       H  0.16874778  0.60067081  0.89544661     0.34700
C1649       C  0.49875483  0.83801826  0.93415058    -0.27100
C1650       C  0.45753911  0.81792282  0.94306054    -0.15100
C1651       C  0.42253078  0.79313591  0.92710417     0.35500
C1652       C  0.42987411  0.79031130  0.90372503    -0.26500
C1653       C  0.47108643  0.81233289  0.89530613    -0.15800
C1654       C  0.50580586  0.83628426  0.91070784     0.36600
N1655       N  0.54875682  0.85835210  0.90314219    -0.90000
H1656       H  0.52656813  0.85443651  0.94502514     0.17700
H1657       H  0.40309944  0.77273745  0.89176386     0.17700
N1658       N  0.37905318  0.77094717  0.93355752    -0.89000
H1659       H  0.55711858  0.88465869  0.89192489     0.35000
H1660       H  0.05408164  0.83685303  0.89166237     0.40100
H1661       H  0.37442610  0.79507681  0.93819137     0.39800
H1662       H  0.37028334  0.74800846  0.94693375     0.34700
C1663       C  0.06303794  0.77067558  0.91627112    -0.27100
C1664       C  0.03192750  0.75112636  0.89849445    -0.15100
C1665       C  0.47376899  0.71970747  0.90488600     0.35500
C1666       C  0.46691629  0.71816471  0.92890430    -0.26500
C1667       C  0.49795943  0.72767959  0.94563334    -0.15800
C1668       C  0.05175145  0.76161017  0.94014834     0.36600
N1669       N  0.08448754  0.78432333  0.95746643    -0.90000
H1670       H  0.09636677  0.79270799  0.91162229     0.17700
H1671       H  0.43583176  0.70738809  0.93441967     0.17700
N1672       N  0.43820504  0.69900757  0.88913446    -0.89000
H1673       H  0.10086226  0.81922901  0.95534355     0.35000
H1674       H  0.10584729  0.77660856  0.95456022     0.40100
H1675       H  0.44277778  0.72398318  0.87825058     0.39800
H1676       H  0.40988118  0.68582719  0.89804044     0.34700
C1677       C  0.41088263  0.91957979  0.94738591    -0.27100
C1678       C  0.37712847  0.90879429  0.96198023    -0.15100
C1679       C  0.34321404  0.90688062  0.95111224     0.35500
C1680       C  0.34106105  0.90909076  0.92661223    -0.26500
C1681       C  0.37301667  0.91539504  0.91217984    -0.15800
C1682       C  0.40938858  0.92326097  0.92312984     0.36600
N1683       N  0.44441617  0.93193921  0.90993532    -0.90000
H1684       H  0.43759438  0.92157038  0.95425017     0.17700
H1685       H  0.31354803  0.90461190  0.91882388     0.17700
N1686       N  0.30870435  0.89850746  0.96471668    -0.89000
H1687       H  0.45795086  0.96212824  0.90083955     0.35000
H1688       H  0.43302467  0.90535899  0.89812285     0.40100
H1689       H  0.28056463  0.86842614  0.95885226     0.39800
H1690       H  0.30629754  0.92498334  0.96187083     0.34700
C1691       C  0.21468036  0.74360080  0.92306553    -0.29500
C1692       C  0.23277423  0.72294753  0.93197069    -0.15100
C1693       C  0.25088951  0.70923436  0.91602452     0.35500
C1694       C  0.24935167  0.71501212  0.89228010    -0.26500
C1695       C  0.22881737  0.73257236  0.88368093    -0.15800
C1696       C  0.21145393  0.74722630  0.89913424     0.36600
N1697       N  0.18930772  0.76468876  0.89089893    -0.90000
H1698       H  0.20197339  0.75617552  0.93435507     0.17700
H1699       H  0.26136470  0.70225469  0.88039567     0.17700
N1700       N  0.27001904  0.68814502  0.92379460    -0.89000
H1701       H  0.16300320  0.73954712  0.88105950     0.35000
H1702       H  0.20974752  0.79217621  0.88010628     0.40100
H1703       H  0.30111742  0.70693355  0.91759620     0.39800
H1704       H  0.25323116  0.65578226  0.91632981     0.34700
C1705       C  0.35038517  0.85035078  0.41736087    -0.27100
C1706       C  0.36457743  0.88942526  0.40480959    -0.15100
C1707       C  0.38160536  0.93029633  0.41672019     0.35500
C1708       C  0.37948550  0.93056157  0.44086352    -0.26500
C1709       C  0.35873463  0.89002066  0.45353969    -0.15800
C1710       C  0.34816970  0.85034522  0.44172680     0.36600
N1711       N  0.33047387  0.80890120  0.45418683    -0.90000
H1712       H  0.33995904  0.81961284  0.40813548     0.17700
H1713       H  0.39033682  0.96225781  0.44886008     0.17700
N1714       N  0.39797696  0.97120631  0.40419078    -0.89000
H1715       H  0.35509189  0.81311508  0.46401383     0.35000
H1716       H  0.32034024  0.78210883  0.44273656     0.40100
H1717       H  0.42933311  0.99561120  0.40964987     0.39800
H1718       H  0.38000536  0.98269672  0.40855638     0.34700
C1719       C  0.31165290  0.83354128  0.11576920    -0.27100
C1720       C  0.29933746  0.86030499  0.10767434    -0.15100
C1721       C  0.28488092  0.87703422  0.12418360     0.35500
C1722       C  0.28583913  0.86960037  0.14781109    -0.26500
C1723       C  0.30070171  0.84556428  0.15558722    -0.15800
C1724       C  0.31284530  0.82648617  0.13959035     0.36600
N1725       N  0.32741117  0.80100497  0.14777788    -0.90000
H1726       H  0.31998091  0.81747186  0.10381504     0.17700
H1727       H  0.27739466  0.88517985  0.16021935     0.17700
N1728       N  0.26929094  0.90192887  0.11706054    -0.89000
H1729       H  0.33550677  0.78931101  0.13386359     0.35000
H1730       H  0.30191154  0.77232688  0.15616483     0.40100
H1731       H  0.23821473  0.88493621  0.12315570     0.39800
H1732       H  0.28821364  0.93388526  0.12495584     0.34700
C1733       C  0.29428454  0.02980841  0.14253651    -0.27100
C1734       C  0.31973302  0.55159844  0.14443315    -0.15100
C1735       C  0.34786585  0.57441943  0.12577913     0.35500
C1736       C  0.33691869  0.55474145  0.10340618    -0.26500
C1737       C  0.31022435  0.02809573  0.10145819    -0.15800
C1738       C  0.28083895  0.00997533  0.12058214     0.36600
N1739       N  0.23765298  0.97016321  0.11899106    -0.90000
H1740       H  0.27169765  0.01447128  0.15664470     0.17700
H1741       H  0.35947086  0.57290342  0.08952251     0.17700
N1742       N  0.38785379  0.61759722  0.12949241    -0.89000
H1743       H  0.23365919  0.94602165  0.13049104     0.35000
H1744       H  0.21766372  0.97833240  0.12467852     0.40100
H1745       H  0.38906210  0.64104408  0.11862780     0.39800
H1746       H  0.41197086  0.61502187  0.12451323     0.34700
C1747       C  0.27909895  0.00486283  0.42305122    -0.27100
C1748       C  0.31023581  0.02203509  0.44089180    -0.15100
C1749       C  0.34502023  0.54792872  0.43040275     0.35500
C1750       C  0.35448132  0.56527504  0.40776257    -0.26500
C1751       C  0.32252776  0.54938234  0.39082383    -0.15800
C1752       C  0.28912925  0.01974801  0.40014733     0.36600
N1753       N  0.25813270  0.99319799  0.38235476    -0.90000
H1754       H  0.24611692  0.97793152  0.42587328     0.17700
H1755       H  0.38754158  0.59010748  0.40310193     0.17700
N1756       N  0.38043461  0.56365886  0.44561408    -0.89000
H1757       H  0.22942197  0.98661763  0.38746864     0.35000
H1758       H  0.25294270  0.96182850  0.38174396     0.40100
H1759       H  0.37960640  0.53632566  0.45139874     0.39800
H1760       H  0.37984256  0.58104248  0.45969553     0.34700
C1761       C  0.02132481  0.75288247  0.40072628    -0.27100
C1762       C  0.05819247  0.77904104  0.38755477    -0.15100
C1763       C  0.09814737  0.80481043  0.39851503     0.35500
C1764       C  0.10026265  0.80215377  0.42268220    -0.26500
C1765       C  0.06329249  0.77344647  0.43622783    -0.15800
C1766       C  0.02315784  0.75090854  0.42484154     0.36600
N1767       N  0.48348378  0.72196848  0.43732957    -0.90000
H1768       H  0.49280694  0.73077957  0.39245576     0.17700
H1769       H  0.13126586  0.82201053  0.43101642     0.17700
N1770       N  0.13630582  0.83241490  0.38507594    -0.89000
H1771       H  0.46647848  0.68873810  0.43103236     0.35000
H1772       H  0.96895188  0.74270217  0.43321642     0.40100
H1773       H  0.13868749  0.81078575  0.37462303     0.39800
H1774       H  0.16317007  0.84958628  0.39589078     0.34700
C1775       C  0.09915669  0.78966081  0.13523751    -0.27100
C1776       C  0.05862981  0.77112991  0.14391365    -0.15100
C1777       C  0.02289760  0.74499311  0.12918038     0.35500
C1778       C  0.02862540  0.74091656  0.10579681    -0.26500
C1779       C  0.06931981  0.75985682  0.09654911    -0.15800
C1780       C  0.10487920  0.78418024  0.11185919     0.36600
N1781       N  0.14720635  0.80538209  0.10358890    -0.90000
H1782       H  0.12661075  0.80819145  0.14670517     0.17700
H1783       H  0.00039498  0.72359679  0.09516236     0.17700
N1784       N  0.47728756  0.70826661  0.13938562    -0.89000
H1785       H  0.16078256  0.79283201  0.11317147     0.35000
H1786       H  0.16484905  0.84020582  0.10676359     0.40100
H1787       H  0.47308463  0.73010969  0.14820179     0.39800
H1788       H  0.47437538  0.68506205  0.15118366     0.34700
C1789       C  0.18822026  0.67854520  0.11479749    -0.27100
C1790       C  0.15658014  0.67385905  0.12877101    -0.15100
C1791       C  0.12056236  0.66618683  0.11749271     0.35500
C1792       C  0.11857085  0.66686049  0.09309596    -0.26500
C1793       C  0.15207916  0.67582834  0.07877729    -0.15800
C1794       C  0.18619222  0.67909789  0.09027212     0.36600
N1795       N  0.22156484  0.68833209  0.07722792    -0.90000
H1796       H  0.21572499  0.68358700  0.12297127     0.17700
H1797       H  0.09198946  0.66460824  0.08577254     0.17700
N1798       N  0.08678667  0.66120445  0.13034858    -0.89000
H1799       H  0.22523453  0.66300364  0.08083077     0.35000
H1800       H  0.24899235  0.71931672  0.08292148     0.40100
H1801       H  0.09968003  0.68958192  0.14108538     0.39800
H1802       H  0.07249532  0.63227764  0.14062262     0.34700
C1803       C  0.13223662  0.67461546  0.40222285    -0.27100
C1804       C  0.17126099  0.69829499  0.39042430    -0.15100
C1805       C  0.20880432  0.72291702  0.40383971     0.35500
C1806       C  0.20674857  0.72642083  0.42812363    -0.26500
C1807       C  0.16776958  0.70769114  0.43982900    -0.15800
C1808       C  0.12997002  0.67858087  0.42647430     0.36600
N1809       N  0.08899564  0.65185201  0.43700894    -0.90000
H1810       H  0.10278307  0.65349544  0.39245793     0.17700
H1811       H  0.23642617  0.74712785  0.43774142     0.17700
N1812       N  0.24930536  0.74515710  0.39288466    -0.89000
H1813       H  0.07033722  0.66032197  0.42939361     0.35000
H1814       H  0.07482888  0.61774089  0.43336381     0.40100
H1815       H  0.26527878  0.73330530  0.40038418     0.39800
H1816       H  0.26669983  0.77980469  0.39643064     0.34700
C1817       C  0.22771917  0.56422876  0.41239040    -0.27100
C1818       C  0.19093532  0.53966267  0.39852775    -0.15100
C1819       C  0.15090021  0.51657568  0.40972691     0.35500
C1820       C  0.14992709  0.01096126  0.43346771    -0.26500
C1821       C  0.18496909  0.53675578  0.44824360    -0.15800
C1822       C  0.22514803  0.56391768  0.43689198     0.36600
N1823       N  0.26370248  0.58916808  0.45024422    -0.90000
H1824       H  0.25867184  0.58345991  0.40423075     0.17700
H1825       H  0.11862152  0.99115248  0.44095344     0.17700
N1826       N  0.11200847  0.98859643  0.39699198    -0.89000
H1827       H  0.28060867  0.62328448  0.44565956     0.35000
H1828       H  0.28203058  0.57828316  0.44565246     0.40100
H1829       H  0.10884508  0.96416232  0.38599327     0.39800
H1830       H  0.11157637  0.01225938  0.38727733     0.34700
C1831       C  0.15967969  0.50581358  0.11204634    -0.27100
C1832       C  0.19268811  0.53502182  0.09632309    -0.15100
C1833       C  0.23380056  0.56721261  0.10648740     0.35500
C1834       C  0.24073218  0.56667385  0.13062820    -0.26500
C1835       C  0.20838646  0.53308603  0.14519458    -0.15800
C1836       C  0.16695141  0.50381812  0.13561602     0.36600
N1837       N  0.13086266  0.47124889  0.14939325    -0.90000
H1838       H  0.12270691  0.99350572  0.09943936     0.17700
H1839       H  0.27225166  0.59128457  0.13778017     0.17700
N1840       N  0.26968824  0.59978527  0.09271440    -0.89000
H1841       H  0.12852006  0.48800612  0.16323966     0.35000
H1842       H  0.13490339  0.44743778  0.15569709     0.40100
H1843       H  0.26290058  0.61994860  0.08433042     0.39800
H1844       H  0.27487282  0.58278149  0.08039254     0.34700
C1845       C  0.03457530  0.84284451  0.13448336    -0.27100
C1846       C  0.99364080  0.82688118  0.14100645    -0.15100
C1847       C  0.96479148  0.81973916  0.12347038     0.35500
C1848       C  0.97752313  0.82800872  0.09980440    -0.26500
C1849       C  0.01929598  0.84502647  0.09313136    -0.15800
C1850       C  0.04775398  0.85220173  0.11128492     0.36600
N1851       N  0.09144730  0.87193164  0.10668046    -0.90000
H1852       H  0.05767316  0.85054031  0.14778648     0.17700
H1853       H  0.95450130  0.82106994  0.08672965     0.17700
N1854       N  0.42127797  0.78759655  0.12884935    -0.89000
H1855       H  0.09845218  0.85092379  0.11334844     0.35000
H1856       H  0.11029352  0.90267758  0.11574818     0.40100
H1857       H  0.40846088  0.75511811  0.13504211     0.39800
H1858       H  0.40358459  0.78336776  0.11412251     0.34700
C1859       C  0.45653820  0.80508653  0.41676795    -0.27100
C1860       C  0.99051187  0.82746930  0.40019662    -0.15100
C1861       C  0.03270311  0.85232542  0.40814635     0.35500
C1862       C  0.04138512  0.85793497  0.43201904    -0.26500
C1863       C  0.01013980  0.84588867  0.44901533    -0.15800
C1864       C  0.96739577  0.82160263  0.44088217     0.36600
N1865       N  0.42997883  0.79515224  0.45696063    -0.90000
H1866       H  0.42405748  0.78528900  0.41038534     0.17700
H1867       H  0.07396405  0.87366085  0.43705825     0.17700
N1868       N  0.06725235  0.87589142  0.39193007    -0.89000
H1869       H  0.42996278  0.77192138  0.46736272     0.35000
H1870       H  0.40096406  0.77683708  0.44796390     0.40100
H1871       H  0.06494759  0.85250109  0.38056969     0.39800
H1872       H  0.09660149  0.89230296  0.40039832     0.34700
In1873     In  0.98337607  0.34831648  0.32985663     1.36900
C1874       C  0.98038120  0.32945440  0.28413988     0.76800
O1875       O  0.91592543  0.32577754  0.32798962    -0.61600
O1876       O  0.96822315  0.39637176  0.32986981    -0.52500
C1877       C  0.47298216  0.30146930  0.37350182     0.69500
O1878       O  0.49336918  0.29523642  0.35902259    -0.47400
C1879       C  0.55356607  0.39417404  0.32928575     0.74200
O1880       O  0.95727927  0.29678978  0.29817213    -0.59300
O1881       O  0.52068681  0.39292467  0.32976710    -0.49300
O1882       O  0.00366827  0.36731663  0.29394026    -0.55700
C1883       C  0.92860222  0.36655259  0.32872288     0.84400
O1884       O  0.44759936  0.30699263  0.36390937    -0.57600
O1885       O  0.54709045  0.35609177  0.32885853    -0.60900
In1886     In  0.98857940  0.34990904  0.21263913     1.36900
C1887       C  0.98217238  0.32950679  0.25826806     0.76800
O1888       O  0.55315358  0.35706569  0.20832222    -0.61600
O1889       O  0.52816976  0.39529763  0.20962275    -0.52500
C1890       C  0.47992046  0.30299043  0.16465615     0.69500
O1891       O  0.99602954  0.31385293  0.18285120    -0.47400
C1892       C  0.93905670  0.37454306  0.21459637     0.74200
O1893       O  0.95868522  0.29761911  0.24375446    -0.59300
O1894       O  0.97865018  0.40251580  0.21146826    -0.49300
O1895       O  0.00866614  0.36691860  0.24889775    -0.55700
C1896       C  0.56056884  0.39561802  0.20893694     0.84400
O1897       O  0.45062843  0.30190888  0.17431365    -0.57600
O1898       O  0.92446082  0.33333418  0.21665745    -0.60900
In1899     In  0.68308653  0.02782159  0.21254299     1.36900
C1900       C  0.69520380  0.02851373  0.25829885     0.76800
O1901       O  0.73009597  0.10382420  0.21172637    -0.61600
O1902       O  0.66288985  0.07009620  0.21617357    -0.52500
C1903       C  0.68951975  0.03275840  0.16630412     0.69500
O1904       O  0.71789253  0.03478337  0.17865148    -0.47400
C1905       C  0.60275180  0.43878682  0.20961919     0.74200
O1906       O  0.71948697  0.02625346  0.24457847    -0.59300
O1907       O  0.61436530  0.98464335  0.21227951    -0.49300
O1908       O  0.66753068  0.02997231  0.24822429    -0.55700
C1909       C  0.69955759  0.10674091  0.21395156     0.84400
O1910       O  0.66039240  0.02885067  0.17788297    -0.57600
O1911       O  0.63783931  0.44395725  0.20848588    -0.60900
In1912     In  0.68110424  0.03048431  0.32933205     1.36900
C1913       C  0.69500709  0.02952992  0.28411088     0.76800
O1914       O  0.63065926  0.44413859  0.33006128    -0.61600
O1915       O  0.61294715  0.98593274  0.32589059    -0.52500
C1916       C  0.68550635  0.03631029  0.37537131     0.69500
O1917       O  0.71519209  0.03985194  0.36379883    -0.47400
C1918       C  0.69656072  0.10892265  0.32785925     0.74200
O1919       O  0.71825178  0.02699793  0.29867108    -0.59300
O1920       O  0.65973145  0.07201411  0.32681514    -0.49300
O1921       O  0.66784654  0.03283783  0.29320308    -0.55700
C1922       C  0.59505985  0.43777553  0.32821702     0.84400
O1923       O  0.65588157  0.03017865  0.36309813    -0.57600
O1924       O  0.72743340  0.10636883  0.32937501    -0.60900
In1925     In  0.70024068  0.21973123  0.32687665     1.36900
C1926       C  0.71504315  0.22992479  0.28238794     0.76800
O1927       O  0.73578282  0.18987659  0.32896941    -0.61600
O1928       O  0.66720041  0.14806076  0.32547800    -0.52500
C1929       C  0.69409554  0.21660155  0.37223220     0.69500
O1930       O  0.72979316  0.24614204  0.36255801    -0.47400
C1931       C  0.65069282  0.24322957  0.32186366     0.74200
O1932       O  0.74460159  0.25950831  0.29616956    -0.59300
O1933       O  0.63792083  0.20262319  0.32046703    -0.49300
O1934       O  0.68118834  0.19784998  0.29188504    -0.55700
C1935       C  0.70066717  0.15048891  0.32739367     0.84400
O1936       O  0.66340621  0.19081812  0.35857230    -0.57600
O1937       O  0.69014407  0.27321052  0.32613730    -0.60900
In1938     In  0.70177239  0.21647354  0.21229343     1.36900
C1939       C  0.71548808  0.22903996  0.25693710     0.76800
O1940       O  0.69317851  0.27080475  0.21203400    -0.61600
O1941       O  0.64010642  0.20077964  0.21818561    -0.52500
C1942       C  0.69338615  0.21216120  0.16689194     0.69500
O1943       O  0.72934105  0.24198834  0.17652697    -0.47400
C1944       C  0.70346739  0.14819152  0.21342726     0.74200
O1945       O  0.74515446  0.25824386  0.24332723    -0.59300
O1946       O  0.66977983  0.14539467  0.21485998    -0.49300
O1947       O  0.68223898  0.19585288  0.24722489    -0.55700
C1948       C  0.65376090  0.24164855  0.21634783     0.84400
O1949       O  0.66364705  0.18544463  0.18060824    -0.57600
O1950       O  0.73832330  0.18761433  0.21122693    -0.60900
In1951     In  0.56682973  0.26615664  0.21851501     1.36900
C1952       C  0.57776901  0.30948025  0.25705291     0.76800
O1953       O  0.97794347  0.22371822  0.21711241    -0.61600
O1954       O  0.00026927  0.18640050  0.22976537    -0.52500
C1955       C  0.56664538  0.27720239  0.17395709     0.69500
O1956       O  0.58326944  0.31093616  0.18754470    -0.47400
C1957       C  0.62437544  0.25273164  0.21856053     0.74200
O1958       O  0.54633598  0.29490118  0.24398245    -0.59300
O1959       O  0.58717730  0.22369970  0.22600157    -0.49300
O1960       O  0.60776981  0.31122083  0.24800827    -0.55700
C1961       C  0.96897902  0.18642513  0.22426687     0.84400
O1962       O  0.55005390  0.23969538  0.18342721    -0.57600
O1963       O  0.63321533  0.29035037  0.21235575    -0.60900
In1964     In  0.56098157  0.26453767  0.32058980     1.36900
C1965       C  0.57377642  0.30823121  0.28204254     0.76800
O1966       O  0.62841021  0.29042457  0.32552195    -0.61600
O1967       O  0.58262625  0.22294389  0.31265930    -0.52500
C1968       C  0.56203095  0.27563114  0.36500671     0.69500
O1969       O  0.57416397  0.30818921  0.35137276    -0.47400
C1970       C  0.96815353  0.18642249  0.31915070     0.74200
O1971       O  0.53773346  0.28324635  0.29112341    -0.59300
O1972       O  0.99887309  0.18523522  0.31412276    -0.49300
O1973       O  0.60425913  0.31923931  0.29513197    -0.55700
C1974       C  0.62022162  0.25300277  0.31956071     0.84400
O1975       O  0.54920805  0.23872186  0.35571324    -0.57600
O1976       O  0.97808384  0.22520047  0.32418978    -0.60900
In1977     In  0.84856126  0.06847067  0.32652566     1.36900
C1978       C  0.81621476  0.06310521  0.28493147     0.76800
O1979       O  0.89380095  0.14439009  0.32772080    -0.61600
O1980       O  0.91618585  0.10665517  0.31630021    -0.52500
C1981       C  0.82612016  0.05877178  0.37074636     0.69500
O1982       O  0.80047453  0.05103134  0.35459971    -0.47400
C1983       C  0.84341682  0.51020118  0.32583410     0.74200
O1984       O  0.80976353  0.02962411  0.29531798    -0.59300
O1985       O  0.87655870  0.55041193  0.32433274    -0.49300
O1986       O  0.83176653  0.09781820  0.29752251    -0.55700
C1987       C  0.92471604  0.14495234  0.32070275     0.84400
O1988       O  0.86363158  0.07770073  0.36415867    -0.57600
O1989       O  0.80858490  0.50516130  0.32541425    -0.60900
In1990     In  0.85004720  0.06880048  0.21850482     1.36900
C1991       C  0.81633415  0.06368197  0.25946561     0.76800
O1992       O  0.82116639  0.51386622  0.21038006    -0.61600
O1993       O  0.88731115  0.55910405  0.21871246    -0.52500
C1994       C  0.83254238  0.06570554  0.17360201     0.69500
O1995       O  0.80650066  0.05870970  0.18917973    -0.47400
C1996       C  0.92574477  0.14496995  0.22406807     0.74200
O1997       O  0.80703250  0.02953928  0.24829460    -0.59300
O1998       O  0.91784880  0.10702998  0.22857193    -0.49300
O1999       O  0.83523894  0.09952656  0.24773892    -0.55700
C2000       C  0.85556533  0.51917324  0.21432301     0.84400
O2001       O  0.86809116  0.07820275  0.18119290    -0.57600
O2002       O  0.89429845  0.14407146  0.21770965    -0.60900
In2003     In  0.86564340  0.41672209  0.21413408     1.36900
C2004       C  0.85162141  0.40437320  0.25848915     0.76800
O2005       O  0.87193612  0.36133735  0.21516052    -0.61600
O2006       O  0.92826249  0.43116776  0.21498988    -0.52500
C2007       C  0.86052670  0.40753776  0.16921379     0.69500
O2008       O  0.82967068  0.37830946  0.18215624    -0.47400
C2009       C  0.85880504  0.48204821  0.21400248     0.74200
O2010       O  0.82166519  0.37703178  0.24436518    -0.59300
O2011       O  0.89458187  0.48910956  0.21606108    -0.49300
O2012       O  0.88652836  0.43589923  0.24949827    -0.55700
C2013       C  0.91224956  0.38929577  0.21509045     0.84400
O2014       O  0.89269434  0.44110626  0.17957551    -0.57600
O2015       O  0.82632050  0.44111649  0.21177900    -0.60900
In2016     In  0.85496109  0.40880027  0.32870346     1.36900
C2017       C  0.84920336  0.40262069  0.28380169     0.76800
O2018       O  0.81368229  0.43149200  0.32839978    -0.61600
O2019       O  0.88233941  0.48039122  0.32796190    -0.52500
C2020       C  0.85196979  0.40464615  0.37363348     0.69500
O2021       O  0.82104062  0.37274516  0.36136413    -0.47400
C2022       C  0.90071882  0.38011881  0.32855504     0.74200
O2023       O  0.81680105  0.37322608  0.29587471    -0.59300
O2024       O  0.91660161  0.42194599  0.32871073    -0.49300
O2025       O  0.88218282  0.43298507  0.29500275    -0.55700
C2026       C  0.84621918  0.47278008  0.32756396     0.84400
O2027       O  0.88302266  0.43762377  0.36263391    -0.57600
O2028       O  0.86032693  0.35209074  0.32840203    -0.60900
C2029       C  0.70179239  0.19577514  0.97057710     0.85700
C2030       C  0.69671800  0.22284901  0.98833962    -0.54500
C2031       C  0.71694273  0.22876102  0.00880599     0.08700
C2032       C  0.74502944  0.21026078  0.00823897     0.19600
C2033       C  0.75039504  0.22157596  0.96763469    -0.55200
C2034       C  0.77404572  0.23587696  0.98752587     0.08800
C2035       C  0.68648937  0.15280757  0.98452697    -0.54800
C2036       C  0.71580511  0.15831059  0.00014426     0.09300
H2037       H  0.67521869  0.23198107  0.98584087     0.13800
H2038       H  0.76268780  0.21581544  0.02454695    -0.00400
H2039       H  0.76470485  0.23165793  0.95062685     0.14100
H2040       H  0.65989404  0.11908471  0.97952588     0.13900
C2041       C  0.85900028  0.36333564  0.97417851     0.85700
C2042       C  0.89703911  0.36913140  0.98689038    -0.54500
C2043       C  0.88632937  0.33604977  0.00322938     0.08700
C2044       C  0.83824644  0.31196063  0.01058902     0.19600
C2045       C  0.82601809  0.31245060  0.96988950    -0.55200
C2046       C  0.81314937  0.28473275  0.98868151     0.08800
C2047       C  0.84047059  0.37494384  0.99319952    -0.54800
C2048       C  0.82929020  0.34918842  0.01245505     0.09300
H2049       H  0.92863005  0.38989255  0.97940408     0.13800
H2050       H  0.82918739  0.29094660  0.02636242    -0.00400
H2051       H  0.81265151  0.30071340  0.95269386     0.14100
H2052       H  0.83910184  0.40353598  0.99230887     0.13900
C2053       C  0.67688388  0.22685862  0.06867020     0.85700
C2054       C  0.69662803  0.21747077  0.04942550    -0.54500
C2055       C  0.70463324  0.24193116  0.02997705     0.08700
C2056       C  0.69254512  0.27641555  0.03213264     0.19600
C2057       C  0.70691148  0.27807950  0.07269910    -0.55200
C2058       C  0.71791376  0.30508047  0.05379121     0.08800
C2059       C  0.63677120  0.21703053  0.05650158    -0.54800
C2060       C  0.64421097  0.24846481  0.03992414     0.09300
H2061       H  0.70013362  0.19036443  0.05020743     0.13800
H2062       H  0.69955055  0.29675670  0.01629557    -0.00400
H2063       H  0.72059092  0.29073770  0.08975965     0.14100
H2064       H  0.60552313  0.19393067  0.06412760     0.13900
C2065       C  0.83038650  0.39664421  0.07103779     0.85700
C2066       C  0.84342390  0.43869575  0.05698857    -0.54500
C2067       C  0.81374620  0.43146418  0.04113472     0.08700
C2068       C  0.78598456  0.37920577  0.03343876     0.19600
C2069       C  0.78164650  0.36938760  0.07428423    -0.55200
C2070       C  0.75745583  0.35393250  0.05445439     0.08800
C2071       C  0.83627904  0.36987066  0.05363093    -0.54800
C2072       C  0.81562699  0.36235782  0.03320160     0.09300
H2073       H  0.86895934  0.47286033  0.06188646     0.13800
H2074       H  0.76802812  0.37234555  0.01708171    -0.00400
H2075       H  0.76787970  0.35982552  0.09142116     0.14100
H2076       H  0.85858760  0.36187496  0.05634766     0.13900
C2077       C  0.58026839  0.27622588  0.07430189     0.85700
C2078       C  0.60079077  0.32305861  0.06363010    -0.54500
C2079       C  0.59317209  0.32154504  0.04063707     0.08700
C2080       C  0.59100286  0.27960223  0.03003847     0.19600
C2081       C  0.53907619  0.23836008  0.05958462    -0.55200
C2082       C  0.54464957  0.24051089  0.03609942     0.08800
C2083       C  0.61271438  0.26970144  0.06819506    -0.54800
C2084       C  0.62007180  0.26949879  0.04513939     0.09300
H2085       H  0.60605443  0.35032604  0.07429043     0.13800
H2086       H  0.59902056  0.28469774  0.01141381    -0.00400
H2087       H  0.50758704  0.21407487  0.06643354     0.14100
H2088       H  0.62835575  0.26429022  0.08185248     0.13900
C2089       C  0.52812295  0.35490207  0.06554173     0.85700
C2090       C  0.50100863  0.35475176  0.04662148    -0.54500
C2091       C  0.51590940  0.35898693  0.02424261     0.08700
C2092       C  0.56315813  0.37092644  0.02422660     0.19600
C2093       C  0.53286312  0.31952178  0.05642899    -0.55200
C2094       C  0.55869074  0.33047603  0.03729984     0.08800
C2095       C  0.57027179  0.40132342  0.06243963    -0.54800
C2096       C  0.59025090  0.41214612  0.04134619     0.09300
H2097       H  0.96799019  0.34631913  0.05197865     0.13800
H2098       H  0.57715340  0.37722230  0.00670129    -0.00400
H2099       H  0.52337802  0.29214637  0.06805787     0.14100
H2100       H  0.58131503  0.42557727  0.07635860     0.13900
C2101       C  0.99517720  0.22354484  0.97460599     0.85700
C2102       C  0.99228866  0.25959665  0.98489638    -0.54500
C2103       C  0.96583550  0.24744297  0.00397443     0.08700
C2104       C  0.95966019  0.20525203  0.01587296     0.19600
C2105       C  0.52347654  0.21910796  0.99528130    -0.55200
C2106       C  0.00588068  0.21522685  0.01543473     0.08800
C2107       C  0.95098057  0.17812735  0.97670850    -0.54800
C2108       C  0.93157960  0.16574764  0.99805855     0.09300
H2109       H  0.00257910  0.28783911  0.97378813     0.13800
H2110       H  0.94562671  0.19803206  0.03343049    -0.00400
H2111       H  0.55299426  0.22403612  0.99130461     0.14100
H2112       H  0.93663853  0.15646861  0.96159239     0.13900
C2113       C  0.94397068  0.30213064  0.96788533     0.85700
C2114       C  0.91206446  0.30915728  0.97446603    -0.54500
C2115       C  0.90548143  0.30971597  0.99758362     0.08700
C2116       C  0.93348082  0.29764487  0.01219310     0.19600
C2117       C  0.98571498  0.33960247  0.98311375    -0.55200
C2118       C  0.98013931  0.33626377  0.00685037     0.08800
C2119       C  0.92363581  0.25519400  0.97807612    -0.54800
C2120       C  0.93121641  0.25615442  0.00096886     0.09300
H2121       H  0.89833062  0.31758561  0.96115617     0.13800
H2122       H  0.92394092  0.29031421  0.03055501    -0.00400
H2123       H  0.51953777  0.36302481  0.97454753     0.14100
H2124       H  0.91979706  0.22888639  0.96713491     0.13900
C2125       C  0.73852110  0.08661657  0.96339380     0.85700
C2126       C  0.78582985  0.12520589  0.96836141    -0.54500
C2127       C  0.79727996  0.12670393  0.99049047     0.08700
C2128       C  0.75816345  0.11425640  0.00616141     0.19600
C2129       C  0.72093896  0.04758654  0.98191751    -0.55200
C2130       C  0.72864272  0.06164846  0.00462042     0.08800
C2131       C  0.72079603  0.11079344  0.97081612    -0.54800
C2132       C  0.73099456  0.12870793  0.99314727     0.09300
H2133       H  0.81042652  0.13996720  0.95541260     0.13800
H2134       H  0.76912193  0.12905189  0.02372330    -0.00400
H2135       H  0.70238976  0.01194578  0.97743874     0.14100
H2136       H  0.70491020  0.11680025  0.95772342     0.13900
C2137       C  0.83886811  0.05536483  0.97397479     0.85700
C2138       C  0.81554825  0.02430110  0.99422100    -0.54500
C2139       C  0.81789349  0.04578452  0.01442414     0.08700
C2140       C  0.84479222  0.09988070  0.01162313     0.19600
C2141       C  0.82130115  0.08236074  0.97220861    -0.55200
C2142       C  0.82156676  0.10498036  0.99150964     0.08800
C2143       C  0.88384616  0.08772013  0.98385472    -0.54800
C2144       C  0.88977386  0.11697505  0.00099256     0.09300
H2145       H  0.80080570  0.98855011  0.99267396     0.13800
H2146       H  0.84731416  0.11796343  0.02768660    -0.00400
H2147       H  0.80644934  0.07987333  0.95583068     0.14100
H2148       H  0.91054403  0.09013847  0.97653413     0.13900
C2149       C  0.78793584  0.50404806  0.07518364     0.85700
C2150       C  0.80958844  0.48324166  0.06836227    -0.54500
C2151       C  0.79769694  0.46095486  0.04688406     0.08700
C2152       C  0.76588366  0.46911893  0.03365960     0.19600
C2153       C  0.80445183  0.03452779  0.05811402    -0.55200
C2154       C  0.79728954  0.01726595  0.03602981     0.08800
C2155       C  0.74205652  0.46180128  0.07197847    -0.54800
C2156       C  0.72707008  0.45501358  0.05039212     0.09300
H2157       H  0.82892808  0.48238383  0.08149137     0.13800
H2158       H  0.75432176  0.45140278  0.01675745    -0.00400
H2159       H  0.82286394  0.07060128  0.06159178     0.14100
H2160       H  0.73058330  0.43130556  0.08176510     0.13900
C2161       C  0.68226848  0.01770765  0.06537742     0.85700
C2162       C  0.63667321  0.49101199  0.05437593    -0.54500
C2163       C  0.63163331  0.46097310  0.03805789     0.08700
C2164       C  0.67723115  0.47752074  0.02905489     0.19600
C2165       C  0.69581785  0.49245610  0.06894629    -0.55200
C2166       C  0.69921130  0.47250903  0.04961492     0.08800
C2167       C  0.70776384  0.05053510  0.04607250    -0.54800
C2168       C  0.70824906  0.03101907  0.02576949     0.09300
H2169       H  0.60968454  0.48995356  0.05973758     0.13800
H2170       H  0.67590378  0.45899722  0.01350339    -0.00400
H2171       H  0.70595073  0.49071574  0.08605516     0.14100
H2172       H  0.72039009  0.08572333  0.04792165     0.13900
C2173       C  0.72468433  0.08283419  0.57758082     0.85700
C2174       C  0.70829364  0.10826491  0.56963277    -0.54500
C2175       C  0.72224198  0.12879767  0.54796244     0.08700
C2176       C  0.74971852  0.11391274  0.53579323     0.19600
C2177       C  0.70751279  0.04555628  0.55817984    -0.55200
C2178       C  0.71925264  0.06122817  0.53627804     0.08800
C2179       C  0.77232382  0.12022094  0.57465054    -0.54800
C2180       C  0.78651246  0.12428335  0.55290118     0.09300
H2181       H  0.68981473  0.11217538  0.58186452     0.13800
H2182       H  0.76239662  0.12935656  0.51859503    -0.00400
H2183       H  0.68271902  0.00988694  0.56042285     0.14100
H2184       H  0.79404291  0.13298753  0.58940764     0.13900
C2185       C  0.83501920  0.06081329  0.57063558     0.85700
C2186       C  0.87939937  0.09600390  0.56134493    -0.54500
C2187       C  0.88320885  0.12236498  0.54328653     0.08700
C2188       C  0.83740144  0.10115936  0.53211107     0.19600
C2189       C  0.81265535  0.08264345  0.57126524    -0.55200
C2190       C  0.81236501  0.10448658  0.55192230     0.08800
C2191       C  0.81365795  0.02796932  0.55037607    -0.54800
C2192       C  0.81390960  0.04725288  0.52969797     0.09300
H2193       H  0.90686748  0.10178046  0.56995190     0.13800
H2194       H  0.83840681  0.11773543  0.51583015    -0.00400
H2195       H  0.79462900  0.07652896  0.58683920     0.14100
H2196       H  0.80110034  0.99279734  0.55224707     0.13900
C2197       C  0.78702653  0.50531865  0.46461580     0.85700
C2198       C  0.74028934  0.46659305  0.46742999    -0.54500
C2199       C  0.72462975  0.45703827  0.48895841     0.08700
C2200       C  0.76308809  0.47123056  0.50627963     0.19600
C2201       C  0.80038514  0.03063155  0.48570052    -0.55200
C2202       C  0.79299964  0.01645075  0.50829339     0.08800
C2203       C  0.80434638  0.48020629  0.47170183    -0.54800
C2204       C  0.79258291  0.45976288  0.49343310     0.09300
H2205       H  0.72117324  0.44132316  0.45406504     0.13800
H2206       H  0.75169603  0.45506166  0.52346070    -0.00400
H2207       H  0.81825249  0.06622514  0.48141747     0.14100
H2208       H  0.82074123  0.47507507  0.45863355     0.13900
C2209       C  0.67614706  0.01654982  0.47549141     0.85700
C2210       C  0.70123505  0.04991869  0.49469193    -0.54500
C2211       C  0.69990516  0.03063086  0.51526767     0.08700
C2212       C  0.66830140  0.47050707  0.51067498     0.19600
C2213       C  0.68101691  0.47983995  0.47029450    -0.55200
C2214       C  0.68917791  0.46442246  0.48990570     0.08800
C2215       C  0.62330570  0.47947825  0.48582208    -0.54800
C2216       C  0.62114915  0.45122334  0.50225011     0.09300
H2217       H  0.71598721  0.08559902  0.49229363     0.13800
H2218       H  0.66909801  0.45455853  0.52675532    -0.00400
H2219       H  0.68766439  0.47491921  0.45296102     0.14100
H2220       H  0.59481462  0.47499768  0.47973421     0.13900
C2221       C  0.69434923  0.19965192  0.56861367     0.85700
C2222       C  0.74253789  0.22525642  0.57353213    -0.54500
C2223       C  0.76818165  0.23852819  0.55463483     0.08700
C2224       C  0.74099449  0.21295745  0.53297249     0.19600
C2225       C  0.69152292  0.22667666  0.54998307    -0.55200
C2226       C  0.71343675  0.23192543  0.53043140     0.08800
C2227       C  0.68022826  0.15643366  0.55522787    -0.54800
C2228       C  0.71016708  0.16105296  0.54073111     0.09300
H2229       H  0.75504850  0.23596993  0.59095511     0.13800
H2230       H  0.75995307  0.21801979  0.51744906    -0.00400
H2231       H  0.67010947  0.23615357  0.55119988     0.14100
H2232       H  0.65269264  0.12299806  0.55946711     0.13900
C2233       C  0.85410967  0.36543301  0.56923109     0.85700
C2234       C  0.83426140  0.37564882  0.55014274    -0.54500
C2235       C  0.82377092  0.34989163  0.53076466     0.08700
C2236       C  0.83403836  0.31388212  0.53268124     0.19600
C2237       C  0.82224999  0.31431126  0.57343781    -0.55200
C2238       C  0.80914171  0.28651640  0.55441645     0.08800
C2239       C  0.89241930  0.37203139  0.55666160    -0.54800
C2240       C  0.88256084  0.33975402  0.53997877     0.09300
H2241       H  0.83170267  0.40343244  0.55109264     0.13800
H2242       H  0.82535398  0.29290432  0.51682020    -0.00400
H2243       H  0.80940719  0.30250117  0.59060929     0.14100
H2244       H  0.92438091  0.39418898  0.56364622     0.13900
C2245       C  0.67266350  0.22765846  0.46993146     0.85700
C2246       C  0.63230596  0.21477259  0.48289820    -0.54500
C2247       C  0.63881049  0.24608444  0.49924617     0.08700
C2248       C  0.68761158  0.27680330  0.50669923     0.19600
C2249       C  0.69972551  0.27899893  0.46597842    -0.55200
C2250       C  0.71165586  0.30586383  0.48521572     0.08800
C2251       C  0.69599167  0.22140838  0.48879459    -0.54800
C2252       C  0.70267305  0.24508243  0.50859352     0.09300
H2253       H  0.60057382  0.18896312  0.47645969     0.13800
H2254       H  0.69393762  0.29708595  0.52255644    -0.00400
H2255       H  0.71144696  0.29202204  0.44877990     0.14100
H2256       H  0.70227587  0.19643625  0.48755069     0.13900
C2257       C  0.82831580  0.39640871  0.47156344     0.85700
C2258       C  0.83429503  0.37124991  0.48989455    -0.54500
C2259       C  0.81135233  0.36284207  0.50939941     0.08700
C2260       C  0.78063261  0.37827651  0.50743196     0.19600
C2261       C  0.78004629  0.36706284  0.46668398    -0.55200
C2262       C  0.75410895  0.35263635  0.48557284     0.08800
C2263       C  0.83942026  0.43823495  0.48519939    -0.54800
C2264       C  0.80836210  0.43043567  0.49998097     0.09300
H2265       H  0.85797641  0.36489204  0.48856001     0.13800
H2266       H  0.76132505  0.37104477  0.52313001    -0.00400
H2267       H  0.76841147  0.35571799  0.44918867     0.14100
H2268       H  0.86545031  0.47244489  0.48036234     0.13900
C2269       C  0.56887473  0.26649780  0.46469287     0.85700
C2270       C  0.52929057  0.22746147  0.47968772    -0.54500
C2271       C  0.53578982  0.23095512  0.50323645     0.08700
C2272       C  0.58200350  0.27193293  0.50901404     0.19600
C2273       C  0.58769535  0.31296805  0.47534048    -0.55200
C2274       C  0.58177106  0.31197009  0.49849619     0.08800
C2275       C  0.60374084  0.26325415  0.47082452    -0.54800
C2276       C  0.61213797  0.26405736  0.49386644     0.09300
H2277       H  0.49857342  0.19998345  0.47302673     0.13800
H2278       H  0.59136301  0.27869573  0.52749857    -0.00400
H2279       H  0.59113201  0.33922668  0.46461961     0.14100
H2280       H  0.62112514  0.26042163  0.45733800     0.13900
C2281       C  0.51824188  0.34425617  0.47414259     0.85700
C2282       C  0.56300492  0.38909741  0.47659436    -0.54500
C2283       C  0.58209866  0.40137718  0.49813814     0.08700
C2284       C  0.55405785  0.36201719  0.51550219     0.19600
C2285       C  0.51933942  0.30703632  0.48452973    -0.55200
C2286       C  0.54699288  0.31954368  0.50311254     0.08800
C2287       C  0.49390029  0.34962723  0.49259142    -0.54800
C2288       C  0.50863825  0.35358680  0.51505973     0.09300
H2289       H  0.57698736  0.41198217  0.46208980     0.13800
H2290       H  0.56836004  0.36901300  0.53308052    -0.00400
H2291       H  0.50790213  0.27788629  0.47369019     0.14100
H2292       H  0.97256911  0.36128227  0.49017462     0.13900
C2293       C  0.99281462  0.22972493  0.56473031     0.85700
C2294       C  0.51889085  0.21237657  0.54402765    -0.54500
C2295       C  0.99779023  0.21346922  0.52430177     0.08700
C2296       C  0.95295299  0.20691978  0.52441809     0.19600
C2297       C  0.99257931  0.26665088  0.55243204    -0.55200
C2298       C  0.96362787  0.25294840  0.53425626     0.08800
C2299       C  0.94642612  0.18791142  0.56487899    -0.54800
C2300       C  0.92524540  0.17159334  0.54399104     0.09300
H2301       H  0.54924767  0.21854949  0.54711315     0.13800
H2302       H  0.93673843  0.19694402  0.50728048    -0.00400
H2303       H  0.00945965  0.29945478  0.55985105     0.14100
H2304       H  0.93148056  0.17203849  0.58121995     0.13900
C2305       C  0.94517238  0.30819919  0.57314757     0.85700
C2306       C  0.92385363  0.26162246  0.56147683    -0.54500
C2307       C  0.93062213  0.26378018  0.53843277     0.08700
C2308       C  0.93366228  0.30676164  0.52887804     0.19600
C2309       C  0.98614735  0.34561234  0.55867116    -0.55200
C2310       C  0.98044763  0.34484267  0.53514557     0.08800
C2311       C  0.91218240  0.31463381  0.56753465    -0.54800
C2312       C  0.90509454  0.31662425  0.54453890     0.09300
H2313       H  0.91609273  0.23217674  0.57049273     0.13800
H2314       H  0.92511170  0.30242809  0.51028496    -0.00400
H2315       H  0.51095150  0.35517196  0.56495549     0.14100
H2316       H  0.89653306  0.31941089  0.58143508     0.13900
In2317     In  0.46208959  0.30144267  0.71720924     1.36900
C2318       C  0.44546399  0.25823639  0.75664482     0.76800
O2319       O  0.53085781  0.33231888  0.71467983    -0.61600
O2320       O  0.51168349  0.37037913  0.73053588    -0.52500
C2321       C  0.96380282  0.31752169  0.67380981     0.69500
O2322       O  0.95772127  0.28745959  0.68770664    -0.47400
C2323       C  0.92607422  0.36098688  0.71996251     0.74200
O2324       O  0.47708742  0.26940716  0.74467963    -0.59300
O2325       O  0.96495221  0.38680002  0.72574048    -0.49300
O2326       O  0.41783914  0.25886874  0.74597922    -0.55700
C2327       C  0.54163745  0.36966377  0.72308936     0.84400
O2328       O  0.48247270  0.32672882  0.68219121    -0.57600
O2329       O  0.91096531  0.32047962  0.71513105    -0.60900
In2330     In  0.96162670  0.31942978  0.82275272     1.36900
C2331       C  0.44724197  0.26027363  0.78192125     0.76800
O2332       O  0.89783231  0.30346765  0.82786030    -0.61600
O2333       O  0.95070443  0.37024306  0.81749404    -0.52500
C2334       C  0.95952531  0.30567081  0.86739495     0.69500
O2335       O  0.94085010  0.27252530  0.85323811    -0.47400
C2336       C  0.54433020  0.37704460  0.81466712     0.74200
O2337       O  0.97899277  0.29124133  0.79505014    -0.59300
O2338       O  0.51324785  0.37672517  0.80820852    -0.49300
O2339       O  0.41945469  0.25930013  0.79324115    -0.55700
C2340       C  0.91218094  0.34386285  0.82341161     0.84400
O2341       O  0.97950420  0.34402326  0.85836513    -0.57600
O2342       O  0.53505868  0.34011144  0.82263085    -0.60900
In2343     In  0.67485071  0.00705980  0.71532681     1.36900
C2344       C  0.70728240  0.01179896  0.75616967     0.76800
O2345       O  0.70788459  0.08143252  0.71275683    -0.61600
O2346       O  0.64062390  0.03804890  0.71751694    -0.52500
C2347       C  0.69777231  0.01547223  0.67196540     0.69500
O2348       O  0.72446566  0.02778196  0.68814437    -0.47400
C2349       C  0.58498622  0.41077300  0.72164947     0.74200
O2350       O  0.68811423  0.97551278  0.74457693    -0.59300
O2351       O  0.59363986  0.44916275  0.72598554    -0.49300
O2352       O  0.71705140  0.04592064  0.74501709    -0.55700
C2353       C  0.67394175  0.07773157  0.71459787     0.84400
O2354       O  0.65971397  0.99298759  0.67811870    -0.57600
O2355       O  0.61530838  0.41094846  0.71391337    -0.60900
In2356     In  0.68087008  0.01455426  0.82265227     1.36900
C2357       C  0.70889157  0.01388907  0.78142416     0.76800
O2358       O  0.61917736  0.41940189  0.82099036    -0.61600
O2359       O  0.59533349  0.45664146  0.81097495    -0.52500
C2360       C  0.70276669  0.02254391  0.86684859     0.69500
O2361       O  0.72956672  0.03419297  0.85090438    -0.47400
C2362       C  0.68272369  0.08683798  0.82293295     0.74200
O2363       O  0.69243382  0.97977937  0.79434187    -0.59300
O2364       O  0.64873130  0.04735729  0.82040863    -0.49300
O2365       O  0.71891211  0.04936398  0.79139007    -0.55700
C2366       C  0.58759521  0.41857691  0.81496960     0.84400
O2367       O  0.66502753  0.00116231  0.85992484    -0.57600
O2368       O  0.71637913  0.08971606  0.82451844    -0.60900
In2369     In  0.66964593  0.18422270  0.71131407     1.36900
C2370       C  0.68184234  0.19812844  0.75593892     0.76800
O2371       O  0.66019937  0.23774434  0.71086486    -0.61600
O2372       O  0.60635192  0.16678553  0.71146326    -0.52500
C2373       C  0.67513305  0.19311024  0.66627107     0.69500
O2374       O  0.70516748  0.22400183  0.67932448    -0.47400
C2375       C  0.67302419  0.11641216  0.71320784     0.74200
O2376       O  0.71255264  0.22438707  0.74219515    -0.59300
O2377       O  0.63804908  0.11126027  0.71317111    -0.49300
O2378       O  0.64704776  0.16693122  0.74646706    -0.55700
C2379       C  0.62014857  0.20793775  0.71103830     0.84400
O2380       O  0.64508938  0.15812087  0.67657544    -0.57600
O2381       O  0.70673338  0.15681545  0.71181880    -0.60900
In2382     In  0.67801990  0.19312176  0.82634659     1.36900
C2383       C  0.68358072  0.20035754  0.78132294     0.76800
O2384       O  0.71598670  0.16638757  0.82570529    -0.61600
O2385       O  0.64726279  0.12062209  0.82430740    -0.52500
C2386       C  0.68417442  0.19920456  0.87149503     0.69500
O2387       O  0.71515245  0.22974391  0.85896418    -0.47400
C2388       C  0.63039884  0.21906123  0.82853172     0.74200
O2389       O  0.71603353  0.22914015  0.79378251    -0.59300
O2390       O  0.61593707  0.17770470  0.82821516    -0.49300
O2391       O  0.65024740  0.17068039  0.79219884    -0.55700
C2392       C  0.68228157  0.12587609  0.82428317     0.84400
O2393       O  0.65213770  0.16676204  0.86057028    -0.57600
O2394       O  0.67052291  0.24839375  0.82715666    -0.60900
In2395     In  0.53333634  0.23264683  0.71074201     1.36900
C2396       C  0.54426868  0.25343654  0.75685926     0.76800
O2397       O  0.96330793  0.20874168  0.70973689    -0.61600
O2398       O  0.98376430  0.16830935  0.71968135    -0.52500
C2399       C  0.53735557  0.24501232  0.66397515     0.69500
O2400       O  0.54143032  0.27432336  0.67807743    -0.47400
C2401       C  0.59057286  0.21895686  0.71086209     0.74200
O2402       O  0.55631980  0.28468574  0.74204364    -0.59300
O2403       O  0.55124928  0.18741881  0.71094640    -0.49300
O2404       O  0.52707738  0.21512095  0.74773328    -0.55700
C2405       C  0.95316382  0.16998841  0.71502670     0.84400
O2406       O  0.53271121  0.21212005  0.67415040    -0.57600
O2407       O  0.60153549  0.25913047  0.71055418    -0.60900
In2408     In  0.54259636  0.24218523  0.82929158     1.36900
C2409       C  0.54820167  0.25625116  0.78286478     0.76800
O2410       O  0.61145103  0.27020284  0.82930427    -0.61600
O2411       O  0.56183982  0.19851071  0.83150021    -0.52500
C2412       C  0.54112092  0.25236437  0.87602046     0.69500
O2413       O  0.55738309  0.28640913  0.86248835    -0.47400
C2414       C  0.95373554  0.16720000  0.82719111     0.74200
O2415       O  0.55618545  0.28782569  0.79665877    -0.59300
O2416       O  0.98437344  0.16545018  0.82322405    -0.49300
O2417       O  0.54067035  0.22209657  0.79314850    -0.55700
C2418       C  0.60095843  0.23023047  0.83002938     0.84400
O2419       O  0.52738653  0.21593602  0.86552967    -0.57600
O2420       O  0.96369323  0.20623405  0.83139322    -0.60900
In2421     In  0.83093880  0.05385905  0.71627818     1.36900
C2422       C  0.80256813  0.05006870  0.75990544     0.76800
O2423       O  0.80359175  0.49560516  0.71113208    -0.61600
O2424       O  0.87033505  0.54348120  0.71803316    -0.52500
C2425       C  0.80985228  0.04571964  0.67079986     0.69500
O2426       O  0.82268561  0.08071390  0.68255792    -0.47400
C2427       C  0.90932948  0.12927625  0.71566410     0.74200
O2428       O  0.78757599  0.01583381  0.74724632    -0.59300
O2429       O  0.90075971  0.09110517  0.72031093    -0.49300
O2430       O  0.82452811  0.08643310  0.74876102    -0.55700
C2431       C  0.83904227  0.50283808  0.71443638     0.84400
O2432       O  0.79768454  0.01215163  0.68319215    -0.57600
O2433       O  0.87760674  0.12920492  0.71141964    -0.60900
In2434     In  0.83306719  0.05044873  0.82855809     1.36900
C2435       C  0.80242433  0.04771129  0.78576813     0.76800
O2436       O  0.87874256  0.12568107  0.83296222    -0.61600
O2437       O  0.90162852  0.08851862  0.82110271    -0.52500
C2438       C  0.81752110  0.04416633  0.87436346     0.69500
O2439       O  0.79123557  0.01226077  0.86081899    -0.47400
C2440       C  0.83244934  0.49200227  0.82378750     0.74200
O2441       O  0.79411030  0.01325854  0.79602049    -0.59300
O2442       O  0.86393618  0.52937368  0.81596862    -0.49300
O2443       O  0.81776369  0.08130649  0.79910061    -0.55700
C2444       C  0.91014478  0.12631843  0.82693050     0.84400
O2445       O  0.84319585  0.08062941  0.86392875    -0.57600
O2446       O  0.80024064  0.49005237  0.82960291    -0.60900
In2447     In  0.85658844  0.40677244  0.71364935     1.36900
C2448       C  0.84429665  0.39532958  0.75872814     0.76800
O2449       O  0.86073277  0.35030054  0.71442531    -0.61600
O2450       O  0.91790688  0.41949139  0.71853930    -0.52500
C2451       C  0.85734693  0.40276217  0.66775512     0.69500
O2452       O  0.82379487  0.37460053  0.67937052    -0.47400
C2453       C  0.84450459  0.46748652  0.71389798     0.74200
O2454       O  0.81511450  0.36625295  0.74466824    -0.59300
O2455       O  0.88156832  0.47735843  0.71485134    -0.49300
O2456       O  0.87757115  0.42907981  0.74939365    -0.55700
C2457       C  0.90076727  0.37731558  0.71781259     0.84400
O2458       O  0.88942586  0.43271763  0.67976046    -0.57600
O2459       O  0.81315794  0.42577482  0.71245717    -0.60900
In2460     In  0.84757906  0.39480692  0.82980514     1.36900
C2461       C  0.84255712  0.39224682  0.78428497     0.76800
O2462       O  0.80401425  0.41438789  0.83022939    -0.61600
O2463       O  0.87258805  0.46453125  0.82732683    -0.52500
C2464       C  0.85359573  0.39395028  0.87559736     0.69500
O2465       O  0.81856697  0.36540591  0.86488509    -0.47400
C2466       C  0.88733400  0.36060606  0.82577862     0.74200
O2467       O  0.81062400  0.36140431  0.79623114    -0.59300
O2468       O  0.90620433  0.40310358  0.82643760    -0.49300
O2469       O  0.87527280  0.42235418  0.79585707    -0.55700
C2470       C  0.83587409  0.45553068  0.82719634     0.84400
O2471       O  0.88412065  0.42338605  0.86284901    -0.57600
O2472       O  0.84686283  0.33469366  0.82754733    -0.60900
C2473       C  0.93698989  0.27071041  0.61267420    -0.27100
C2474       C  0.95276774  0.31040726  0.59945229    -0.15100
C2475       C  0.97240742  0.35199400  0.61181581     0.35500
C2476       C  0.97492961  0.35249035  0.63580022    -0.26500
C2477       C  0.95913585  0.31306988  0.64851128    -0.15800
C2478       C  0.94015849  0.27192078  0.63686344     0.36600
N2479       N  0.92372668  0.23113687  0.64946573    -0.90000
H2480       H  0.92106478  0.23761377  0.60516600     0.17700
H2481       H  0.49574364  0.36182155  0.64472116     0.17700
N2482       N  0.99104145  0.39496542  0.60092831    -0.89000
H2483       H  0.89144609  0.20774982  0.64532468     0.35000
H2484       H  0.93966256  0.21803609  0.64378669     0.40100
H2485       H  0.97111494  0.39256370  0.58809085     0.39800
H2486       H  0.52252269  0.39168548  0.59818587     0.34700
C2487       C  0.52870612  0.20859710  0.62516541    -0.27100
C2488       C  0.53576143  0.24560557  0.63762634    -0.15100
C2489       C  0.03621307  0.28790273  0.62653211     0.35500
C2490       C  0.02653816  0.28158329  0.60232006    -0.26500
C2491       C  0.01185721  0.24062171  0.59024174    -0.15800
C2492       C  0.52199404  0.20348801  0.60096014     0.36600
N2493       N  0.51822797  0.16594307  0.59035528    -0.90000
H2494       H  0.52804537  0.18255553  0.63438204     0.17700
H2495       H  0.03077090  0.30961974  0.59344917     0.17700
N2496       N  0.05474590  0.33132879  0.63721974    -0.89000
H2497       H  0.54286312  0.17826334  0.57849057     0.35000
H2498       H  0.48899284  0.14476516  0.58189740     0.40100
H2499       H  0.03382967  0.32767048  0.64973316     0.39800
H2500       H  0.05840966  0.35451506  0.62512103     0.34700
C2501       C  0.89543422  0.40002943  0.60741984    -0.27100
C2502       C  0.86140249  0.38928174  0.59292851    -0.15100
C2503       C  0.82766074  0.38748255  0.60357756     0.35500
C2504       C  0.82717570  0.39273747  0.62778343    -0.26500
C2505       C  0.85993472  0.40048423  0.64204901    -0.15800
C2506       C  0.89512201  0.40568852  0.63161339     0.36600
N2507       N  0.92944293  0.41406232  0.64580238    -0.90000
H2508       H  0.92111534  0.40062355  0.60046944     0.17700
H2509       H  0.80051202  0.38988794  0.63551438     0.17700
N2510       N  0.79250341  0.37808712  0.59001981    -0.89000
H2511       H  0.95347669  0.41834624  0.63554227     0.35000
H2512       H  0.91748063  0.38519432  0.65587132     0.40100
H2513       H  0.79026289  0.40476900  0.59236362     0.39800
H2514       H  0.76463867  0.34856983  0.59626255     0.34700
C2515       C  0.64689604  0.15555428  0.62814687    -0.27100
C2516       C  0.67343002  0.19605507  0.64076630    -0.15100
C2517       C  0.69433805  0.23750049  0.62892760     0.35500
C2518       C  0.69262906  0.23709229  0.60452586    -0.26500
C2519       C  0.67333642  0.19623140  0.59178587    -0.15800
C2520       C  0.64560661  0.15524013  0.60391768     0.36600
N2521       N  0.61507261  0.11344003  0.59222800    -0.90000
H2522       H  0.62738824  0.12343714  0.63710184     0.17700
H2523       H  0.71160733  0.26898767  0.59539230     0.17700
N2524       N  0.71813283  0.27959167  0.64157746    -0.89000
H2525       H  0.58475474  0.10170581  0.59783585     0.35000
H2526       H  0.62021653  0.08974801  0.59723981     0.40100
H2527       H  0.69660564  0.28059646  0.65165051     0.39800
H2528       H  0.73186437  0.30696515  0.63022647     0.34700
C2529       C  0.86365113  0.08173536  0.61181189    -0.27100
C2530       C  0.83382061  0.04656771  0.59634315    -0.15100
C2531       C  0.79577022  0.00914906  0.60657563     0.35500
C2532       C  0.78822906  0.00876329  0.63072485    -0.26500
C2533       C  0.81662508  0.04619655  0.64514033    -0.15800
C2534       C  0.85561453  0.08211930  0.63555123     0.36600
N2535       N  0.88756127  0.11918023  0.65004475    -0.90000
H2536       H  0.89262411  0.11166981  0.60524756     0.17700
H2537       H  0.75937181  0.97955741  0.63808194     0.17700
N2538       N  0.76360564  0.97231218  0.59235305    -0.89000
H2539       H  0.91466574  0.14259502  0.64044111     0.35000
H2540       H  0.89728698  0.10613423  0.66230301     0.40100
H2541       H  0.73566728  0.96967237  0.59408595     0.39800
H2542       H  0.75785173  0.94250225  0.59868573     0.34700
C2543       C  0.69655617  0.01881565  0.60712084    -0.27100
C2544       C  0.71554561  0.06527062  0.60278144    -0.15100
C2545       C  0.73106942  0.09503582  0.62250409     0.35500
C2546       C  0.72873318  0.07797405  0.64460083    -0.26500
C2547       C  0.70920341  0.03194746  0.64822754    -0.15800
C2548       C  0.69183504  0.00199324  0.62938132     0.36600
N2549       N  0.66874253  0.95401864  0.63234281    -0.90000
H2550       H  0.68480487  0.99384536  0.59367155     0.17700
H2551       H  0.74004555  0.10071548  0.65940560     0.17700
N2552       N  0.74930023  0.14251841  0.62138348    -0.89000
H2553       H  0.62285139  0.41901502  0.63894767     0.35000
H2554       H  0.68786171  0.94787738  0.64149778     0.40100
H2555       H  0.74892209  0.15360401  0.60491842     0.39800
H2556       H  0.78118067  0.16093885  0.62649566     0.34700
C2557       C  0.78801353  0.00832527  0.91396174    -0.27100
C2558       C  0.82267128  0.03918057  0.89978638    -0.15100
C2559       C  0.86389785  0.06344886  0.90989628     0.35500
C2560       C  0.86905121  0.06180288  0.93381891    -0.26500
C2561       C  0.83420136  0.03611224  0.94900100    -0.15800
C2562       C  0.79324200  0.00614823  0.93813752     0.36600
N2563       N  0.75582995  0.97486771  0.95130558    -0.90000
H2564       H  0.75636346  0.98698817  0.90643182     0.17700
H2565       H  0.90119248  0.08416887  0.94028095     0.17700
N2566       N  0.90180854  0.08990649  0.89628993    -0.89000
H2567       H  0.75123877  0.99255042  0.96347835     0.35000
H2568       H  0.76013841  0.95283219  0.95984141     0.40100
H2569       H  0.90374398  0.11687206  0.88886048     0.39800
H2570       H  0.90040011  0.06935116  0.88319398     0.34700
C2571       C  0.68229825  0.01299323  0.90837061    -0.27100
C2572       C  0.71379856  0.03693139  0.89137963    -0.15100
C2573       C  0.75120997  0.07957271  0.89718510     0.35500
C2574       C  0.75797238  0.09571503  0.91998273    -0.26500
C2575       C  0.72827881  0.07016667  0.93784277    -0.15800
C2576       C  0.68854759  0.02981606  0.93113259     0.36600
N2577       N  0.65359050  0.00683586  0.94692321    -0.90000
H2578       H  0.65174766  0.98184879  0.90372239     0.17700
H2579       H  0.78595005  0.12981595  0.92276019     0.17700
N2580       N  0.78113150  0.10842456  0.87964171    -0.89000
H2581       H  0.66120963  0.43799656  0.94741032     0.35000
H2582       H  0.62873140  0.00630526  0.93974439     0.40100
H2583       H  0.81109744  0.11800731  0.88475397     0.39800
H2584       H  0.78269248  0.13779643  0.87897501     0.34700
C2585       C  0.98785418  0.32983823  0.93089255    -0.27100
C2586       C  0.94775807  0.30091187  0.94140850    -0.15100
C2587       C  0.91177977  0.27032007  0.92659570     0.35500
C2588       C  0.91726390  0.27095005  0.90269588    -0.26500
C2589       C  0.95693743  0.30146129  0.89267689    -0.15800
C2590       C  0.99262811  0.33106083  0.90695017     0.36600
N2591       N  0.03447288  0.36249732  0.89769021    -0.90000
H2592       H  0.01640936  0.35245492  0.94084094     0.17700
H2593       H  0.88971972  0.24843790  0.89171086     0.17700
N2594       N  0.86898368  0.23822509  0.93465631    -0.89000
H2595       H  0.03507903  0.38647026  0.88767280     0.35000
H2596       H  0.54768613  0.34160291  0.88662689     0.40100
H2597       H  0.85729490  0.25426021  0.94248467     0.39800
H2598       H  0.86686444  0.21476124  0.94574650     0.34700
C2599       C  0.56507788  0.27322629  0.91892928    -0.27100
C2600       C  0.53282525  0.25111099  0.90171612    -0.15100
C2601       C  0.98656909  0.22929455  0.90744595     0.35500
C2602       C  0.97795263  0.22287185  0.93141704    -0.26500
C2603       C  0.00941808  0.23478699  0.94843559    -0.15800
C2604       C  0.55526687  0.26447025  0.94311709     0.36600
N2605       N  0.58865202  0.28928238  0.95995404    -0.90000
H2606       H  0.59797434  0.29651465  0.91366463     0.17700
H2607       H  0.94537962  0.20654929  0.93659756     0.17700
N2608       N  0.95187186  0.20668114  0.89108601    -0.89000
H2609       H  0.60310060  0.32379709  0.95760822     0.35000
H2610       H  0.61133776  0.28359021  0.95672062     0.40100
H2611       H  0.95485475  0.23083363  0.88013957     0.39800
H2612       H  0.92274534  0.19102172  0.89949276     0.34700
C2613       C  0.89536274  0.38919342  0.93477113    -0.27100
C2614       C  0.86583819  0.38596013  0.95031252    -0.15100
C2615       C  0.83297233  0.38702803  0.94039405     0.35500
C2616       C  0.83064272  0.39132417  0.91628451    -0.26500
C2617       C  0.85922892  0.39294129  0.90113450    -0.15800
C2618       C  0.89225842  0.39232160  0.91063217     0.36600
N2619       N  0.92127706  0.39136220  0.89607594    -0.90000
H2620       H  0.91922619  0.38557125  0.94099670     0.17700
H2621       H  0.80513082  0.39168263  0.90927857     0.17700
N2622       N  0.79961054  0.38022080  0.95448243    -0.89000
H2623       H  0.93840784  0.42099160  0.88627776     0.35000
H2624       H  0.90369812  0.36358041  0.88480099     0.40100
H2625       H  0.77059135  0.35123811  0.94855881     0.39800
H2626       H  0.79894650  0.40798900  0.95237919     0.34700
C2627       C  0.70324544  0.23535820  0.93493328    -0.29500
C2628       C  0.68412151  0.19320133  0.94623496    -0.15100
C2629       C  0.65954109  0.15336996  0.93242040     0.35500
C2630       C  0.65953872  0.15697611  0.90826379    -0.26500
C2631       C  0.68392283  0.19908267  0.89713723    -0.15800
C2632       C  0.70495390  0.23882791  0.91061004     0.36600
N2633       N  0.72878661  0.28243130  0.89966670    -0.90000
H2634       H  0.72136768  0.26626806  0.94515100     0.17700
H2635       H  0.64153734  0.12604241  0.89803659     0.17700
N2636       N  0.63471018  0.10900725  0.94219609    -0.89000
H2637       H  0.74291513  0.30824367  0.91212229     0.35000
H2638       H  0.70725346  0.28493072  0.89043986     0.40100
H2639       H  0.64447291  0.09058156  0.93486211     0.39800
H2640       H  0.60291303  0.09292475  0.93745089     0.34700
C2641       C  0.84104985  0.36604743  0.41118660    -0.27100
C2642       C  0.85266775  0.40475197  0.39911878    -0.15100
C2643       C  0.86649013  0.44433283  0.41152069     0.35500
C2644       C  0.86616590  0.44393091  0.43575799    -0.26500
C2645       C  0.84999284  0.40377741  0.44818296    -0.15800
C2646       C  0.83993214  0.36530569  0.43552203     0.36600
N2647       N  0.82411688  0.32384742  0.44726250    -0.90000
H2648       H  0.83160753  0.33586573  0.40169866     0.17700
H2649       H  0.87513516  0.47455203  0.44425835     0.17700
N2650       N  0.87781478  0.48420464  0.39953637    -0.89000
H2651       H  0.84234326  0.31296898  0.44232984     0.35000
H2652       H  0.79271101  0.29969816  0.44190370     0.40100
H2653       H  0.90868850  0.51108584  0.40457039     0.39800
H2654       H  0.85720861  0.49179744  0.40486386     0.34700
C2655       C  0.83141041  0.36128654  0.10790877    -0.27100
C2656       C  0.85047168  0.40156197  0.09492299    -0.15100
C2657       C  0.88101218  0.44308543  0.10640651     0.35500
C2658       C  0.88477174  0.44389500  0.13063358    -0.26500
C2659       C  0.85962267  0.40413080  0.14369775    -0.15800
C2660       C  0.83473771  0.36229795  0.13211400     0.36600
N2661       N  0.81212077  0.32081298  0.14483968    -0.90000
H2662       H  0.81000052  0.32868625  0.09942500     0.17700
H2663       H  0.90659264  0.47623226  0.13929622     0.17700
N2664       N  0.90920920  0.48429562  0.09402316    -0.89000
H2665       H  0.82185407  0.30145998  0.13892092     0.35000
H2666       H  0.77974135  0.30315039  0.14104306     0.40100
H2667       H  0.90508989  0.50822949  0.10013867     0.39800
H2668       H  0.94045131  0.49622991  0.09776310     0.34700
C2669       C  0.77977646  0.52587405  0.14105355    -0.27100
C2670       C  0.82112464  0.05469017  0.14875309    -0.15100
C2671       C  0.85184949  0.07416172  0.13099376     0.35500
C2672       C  0.84020705  0.05585801  0.10835350    -0.26500
C2673       C  0.79776389  0.52445797  0.10025050    -0.15800
C2674       C  0.76882945  0.50407766  0.11941599     0.36600
N2675       N  0.72886083  0.46014627  0.11808265    -0.90000
H2676       H  0.75777699  0.50857517  0.15528425     0.17700
H2677       H  0.86420143  0.07071785  0.09496567     0.17700
N2678       N  0.89487940  0.11214914  0.13605750    -0.89000
H2679       H  0.72930089  0.43909160  0.13003644     0.35000
H2680       H  0.70478671  0.46289819  0.12294846     0.40100
H2681       H  0.89409780  0.13901393  0.14094735     0.39800
H2682       H  0.91360734  0.12250161  0.12117241     0.34700
C2683       C  0.76436695  0.50992507  0.42316264    -0.27100
C2684       C  0.79761359  0.52518308  0.43954752    -0.15100
C2685       C  0.83745231  0.04331080  0.43459032     0.35500
C2686       C  0.84613069  0.06021868  0.41194384    -0.26500
C2687       C  0.81388762  0.04367372  0.39514223    -0.15800
C2688       C  0.77154488  0.52453977  0.40014339     0.36600
N2689       N  0.73691306  0.50173804  0.38377056    -0.90000
H2690       H  0.73174931  0.48483574  0.42733470     0.17700
H2691       H  0.87901759  0.08579345  0.40724847     0.17700
N2692       N  0.87345140  0.06009643  0.44952203    -0.89000
H2693       H  0.70801568  0.47756095  0.39186805     0.35000
H2694       H  0.74246094  0.48384836  0.37225607     0.40100
H2695       H  0.87363782  0.03330825  0.45523544     0.39800
H2696       H  0.87300509  0.07745960  0.46360401     0.34700
C2697       C  0.52521541  0.24875988  0.40194571    -0.27100
C2698       C  0.56303794  0.27879154  0.39005897    -0.15100
C2699       C  0.60173482  0.30566912  0.40202727     0.35500
C2700       C  0.60195411  0.30063570  0.42601239    -0.26500
C2701       C  0.56421398  0.26878137  0.43840245    -0.15800
C2702       C  0.52504547  0.24434928  0.42597977     0.36600
N2703       N  0.98059888  0.22630387  0.44062424    -0.90000
H2704       H  0.98896370  0.23663721  0.39592177     0.17700
H2705       H  0.63211647  0.32154235  0.43515847     0.17700
N2706       N  0.64067806  0.33679691  0.38970879    -0.89000
H2707       H  0.96208752  0.19320725  0.43402115     0.35000
H2708       H  0.46721098  0.22835732  0.43333367     0.40100
H2709       H  0.64597858  0.31778621  0.37889052     0.39800
H2710       H  0.66649008  0.35438902  0.40120682     0.34700
C2711       C  0.60725500  0.31055372  0.13835886    -0.27100
C2712       C  0.56800513  0.28008238  0.14883698    -0.15100
C2713       C  0.53222265  0.24785140  0.13524894     0.35500
C2714       C  0.53594590  0.24809431  0.11131442    -0.26500
C2715       C  0.57562889  0.27743166  0.10047073    -0.15800
C2716       C  0.61175772  0.30866203  0.11449750     0.36600
N2717       N  0.65323063  0.33872836  0.10455619    -0.90000
H2718       H  0.63511071  0.33430663  0.14887514     0.17700
H2719       H  0.50728662  0.22385418  0.10180043     0.17700
N2720       N  0.97667639  0.21534707  0.14124813    -0.89000
H2721       H  0.67350986  0.33272423  0.11245418     0.35000
H2722       H  0.66461228  0.37196341  0.10835695     0.40100
H2723       H  0.97131407  0.23616917  0.15021817     0.39800
H2724       H  0.97246155  0.19080433  0.15252752     0.34700
C2725       C  0.71436945  0.21086764  0.12631010    -0.27100
C2726       C  0.68531603  0.20817751  0.14150839    -0.15100
C2727       C  0.64812049  0.20080020  0.13219753     0.35500
C2728       C  0.64254174  0.19984037  0.10812770    -0.26500
C2729       C  0.67295398  0.20559679  0.09245754    -0.15800
C2730       C  0.70872423  0.20961103  0.10214078     0.36600
N2731       N  0.74128730  0.21571732  0.08759090    -0.90000
H2732       H  0.74240017  0.21523964  0.13320986     0.17700
H2733       H  0.61566834  0.19835398  0.10196323     0.17700
N2734       N  0.61662678  0.19722660  0.14670495    -0.89000
H2735       H  0.74400815  0.18964146  0.09105092     0.35000
H2736       H  0.77016235  0.24647738  0.09199370     0.40100
H2737       H  0.63143774  0.22588500  0.15742055     0.39800
H2738       H  0.60280539  0.16834571  0.15696263     0.34700
C2739       C  0.64743223  0.20031757  0.40544788    -0.27100
C2740       C  0.68648060  0.21191171  0.39754891    -0.15100
C2741       C  0.71520654  0.21556975  0.41367680     0.35500
C2742       C  0.70664778  0.21309817  0.43759263    -0.26500
C2743       C  0.66923729  0.20649434  0.44602549    -0.15800
C2744       C  0.63850634  0.19773718  0.42915040     0.36600
N2745       N  0.59828958  0.18715936  0.43553574    -0.90000
H2746       H  0.62394393  0.19500979  0.39304402     0.17700
H2747       H  0.73116074  0.21992434  0.44959779     0.17700
N2748       N  0.75257428  0.22089590  0.40579287    -0.89000
H2749       H  0.59471317  0.20995769  0.42723691     0.35000
H2750       H  0.57444239  0.15481455  0.42912961     0.40100
H2751       H  0.75199489  0.19404523  0.41231842     0.39800
H2752       H  0.77931748  0.25098557  0.41262321     0.34700
C2753       C  0.72084056  0.06233325  0.41475578    -0.27100
C2754       C  0.68356716  0.03819327  0.40123182    -0.15100
C2755       C  0.64394254  0.01628758  0.41281426     0.35500
C2756       C  0.62881635  0.50546796  0.43563132    -0.26500
C2757       C  0.67920053  0.03515322  0.45083839    -0.15800
C2758       C  0.71906983  0.06172953  0.43924912     0.36600
N2759       N  0.75794233  0.08510602  0.45232659    -0.90000
H2760       H  0.75153861  0.08081646  0.40633876     0.17700
H2761       H  0.59802456  0.48361612  0.44355888     0.17700
N2762       N  0.58864873  0.48257031  0.39977123    -0.89000
H2763       H  0.77592439  0.11948632  0.44810467     0.35000
H2764       H  0.77500681  0.07304537  0.44710432     0.40100
H2765       H  0.58619778  0.45872923  0.38860400     0.39800
H2766       H  0.58642741  0.50526032  0.39027399     0.34700
C2767       C  0.64674051  0.00829543  0.10414134    -0.27100
C2768       C  0.68347342  0.03523438  0.09034171    -0.15100
C2769       C  0.72293618  0.06503243  0.10271264     0.35500
C2770       C  0.72464657  0.06369085  0.12720416    -0.26500
C2771       C  0.68801028  0.03378101  0.14031267    -0.15800
C2772       C  0.64853911  0.00659102  0.12833543     0.36600
N2773       N  0.60944820  0.97405051  0.14005845    -0.90000
H2774       H  0.61438638  0.50318330  0.09490187     0.17700
H2775       H  0.75504563  0.08588616  0.13600379     0.17700
N2776       N  0.76237377  0.09556888  0.09093435    -0.89000
H2777       H  0.60174952  0.99092093  0.15087267     0.35000
H2778       H  0.61328318  0.95287948  0.14993264     0.40100
H2779       H  0.76014347  0.11803635  0.08124243     0.39800
H2780       H  0.76814171  0.07733545  0.07989859     0.34700
C2781       C  0.53217159  0.34254360  0.13287224    -0.27100
C2782       C  0.48952887  0.31221786  0.13908666    -0.15100
C2783       C  0.45845029  0.29740434  0.12142202     0.35500
C2784       C  0.47103488  0.31308260  0.09812160    -0.26500
C2785       C  0.51429513  0.34439049  0.09179668    -0.15800
C2786       C  0.54492881  0.35821467  0.11007779     0.36600
N2787       N  0.58980982  0.38878049  0.10611690    -0.90000
H2788       H  0.55657266  0.35527530  0.14613692     0.17700
H2789       H  0.44684244  0.29989040  0.08476058     0.17700
N2790       N  0.91376015  0.30199811  0.13181223    -0.89000
H2791       H  0.60395628  0.37394620  0.11201758     0.35000
H2792       H  0.60214625  0.41785313  0.11618092     0.40100
H2793       H  0.89792387  0.26944637  0.13872318     0.39800
H2794       H  0.89609363  0.29919360  0.11739190     0.34700
C2795       C  0.95682118  0.31386596  0.41752078    -0.27100
C2796       C  0.48283893  0.30950276  0.39918436    -0.15100
C2797       C  0.52519766  0.34133250  0.40669845     0.35500
C2798       C  0.53483782  0.34938726  0.43049782    -0.26500
C2799       C  0.50340777  0.33301844  0.44793501    -0.15800
C2800       C  0.46039700  0.30199940  0.44031108     0.36600
N2801       N  0.93247718  0.30019266  0.45829222    -0.90000
H2802       H  0.92410569  0.29537022  0.41167673     0.17700
H2803       H  0.56814184  0.36905376  0.43499190     0.17700
N2804       N  0.55835333  0.36890340  0.39013223    -0.89000
H2805       H  0.93344997  0.27646152  0.46760466     0.35000
H2806       H  0.90296823  0.28209092  0.44982282     0.40100
H2807       H  0.56267148  0.34825605  0.38036030     0.39800
H2808       H  0.58744194  0.39243185  0.39842038     0.34700
In2809     In  0.98536207  0.84035632  0.32888357     1.36900
C2810       C  0.98123141  0.82453623  0.28298415     0.76800
O2811       O  0.91670718  0.81250840  0.32866818    -0.61600
O2812       O  0.96662901  0.88448740  0.32824312    -0.52500
C2813       C  0.48238870  0.81958674  0.37479701     0.69500
O2814       O  0.48714784  0.79658373  0.36032713    -0.47400
C2815       C  0.56677456  0.90763164  0.32973246     0.74200
O2816       O  0.96218263  0.79072959  0.29673948    -0.59300
O2817       O  0.53539955  0.90838726  0.32621705    -0.49300
O2818       O  0.00072034  0.86217757  0.29307619    -0.55700
C2819       C  0.92737577  0.85260806  0.32880412     0.84400
O2820       O  0.47687555  0.84636193  0.36537796    -0.57600
O2821       O  0.55809705  0.86885229  0.33292037    -0.60900
In2822     In  0.98920729  0.84573253  0.21182046     1.36900
C2823       C  0.98307527  0.82575613  0.25716980     0.76800
O2824       O  0.55821195  0.86655026  0.21008571    -0.61600
O2825       O  0.53565612  0.90715035  0.21113978    -0.52500
C2826       C  0.48453843  0.81404297  0.16598550     0.69500
O2827       O  0.99414788  0.80815580  0.18179203    -0.47400
C2828       C  0.92999132  0.85670399  0.21478659     0.74200
O2829       O  0.96405745  0.79327160  0.24246842    -0.59300
O2830       O  0.96873403  0.88932293  0.21216426    -0.49300
O2831       O  0.00524865  0.86430048  0.24814272    -0.55700
C2832       C  0.56710843  0.90578492  0.21053327     0.84400
O2833       O  0.46874159  0.83246314  0.17431623    -0.57600
O2834       O  0.92091039  0.81734945  0.21527483    -0.60900
In2835     In  0.67441246  0.52038453  0.21127252     1.36900
C2836       C  0.68484772  0.52180345  0.25692437     0.76800
O2837       O  0.72095555  0.59643626  0.20950269    -0.61600
O2838       O  0.65336564  0.56191634  0.21327658    -0.52500
C2839       C  0.68212525  0.52954508  0.16560581     0.69500
O2840       O  0.71048359  0.53082547  0.17759331    -0.47400
C2841       C  0.60998402  0.94790748  0.21115387     0.74200
O2842       O  0.70865119  0.51763271  0.24384541    -0.59300
O2843       O  0.60558702  0.47455115  0.21169157    -0.49300
O2844       O  0.65957972  0.52639025  0.24628417    -0.55700
C2845       C  0.68980374  0.59867964  0.21039547     0.84400
O2846       O  0.65155621  0.52215686  0.17726250    -0.57600
O2847       O  0.64422276  0.95120299  0.21089456    -0.60900
In2848     In  0.66491528  0.51980364  0.32724556     1.36900
C2849       C  0.68191822  0.52049423  0.28258552     0.76800
O2850       O  0.64365616  0.95436511  0.33272568    -0.61600
O2851       O  0.59660340  0.47265570  0.32530649    -0.52500
C2852       C  0.66938684  0.52857741  0.37326760     0.69500
O2853       O  0.69967351  0.53359292  0.36166154    -0.47400
C2854       C  0.68034277  0.59759280  0.32328196     0.74200
O2855       O  0.70483199  0.51851996  0.29764751    -0.59300
O2856       O  0.64338316  0.56076174  0.32200110    -0.49300
O2857       O  0.65273339  0.52126975  0.29093687    -0.55700
C2858       C  0.60923504  0.94999618  0.32948448     0.84400
O2859       O  0.63870671  0.51991597  0.36099213    -0.57600
O2860       O  0.71092784  0.59505179  0.32651322    -0.60900
In2861     In  0.68752452  0.70977768  0.32004103     1.36900
C2862       C  0.70094807  0.71977731  0.27449649     0.76800
O2863       O  0.72103621  0.67829800  0.32261855    -0.61600
O2864       O  0.65240103  0.63784289  0.31899098    -0.52500
C2865       C  0.68533227  0.70998665  0.36623375     0.69500
O2866       O  0.72003048  0.73816000  0.35534162    -0.47400
C2867       C  0.63895768  0.73418035  0.31786017     0.74200
O2868       O  0.73064598  0.74909314  0.28830177    -0.59300
O2869       O  0.62535268  0.69344089  0.31531581    -0.49300
O2870       O  0.66739204  0.68805092  0.28437618    -0.55700
C2871       C  0.68532888  0.63938244  0.32145287     0.84400
O2872       O  0.65355867  0.68319636  0.35334754    -0.57600
O2873       O  0.67872861  0.76367208  0.32129728    -0.60900
In2874     In  0.68840173  0.70560051  0.20318708     1.36900
C2875       C  0.70123928  0.71870866  0.24870414     0.76800
O2876       O  0.67933665  0.75977528  0.20299071    -0.61600
O2877       O  0.62622678  0.68975873  0.20880887    -0.52500
C2878       C  0.68055781  0.69664722  0.15671308     0.69500
O2879       O  0.71608417  0.72783663  0.16633004    -0.47400
C2880       C  0.69253731  0.63922764  0.20744616     0.74200
O2881       O  0.73079384  0.74775390  0.23493232    -0.59300
O2882       O  0.65809709  0.63514719  0.20708543    -0.49300
O2883       O  0.66822676  0.68542812  0.23879967    -0.55700
C2884       C  0.63999552  0.73076249  0.20761646     0.84400
O2885       O  0.65100802  0.67166685  0.17092390    -0.57600
O2886       O  0.72693650  0.67894182  0.20490555    -0.60900
In2887     In  0.55466410  0.75785846  0.21377439     1.36900
C2888       C  0.56945435  0.80107368  0.25339987     0.76800
O2889       O  0.98586230  0.73666906  0.21340614    -0.61600
O2890       O  0.00200993  0.69430472  0.22699993    -0.52500
C2891       C  0.55306388  0.76380710  0.16868761     0.69500
O2892       O  0.57129340  0.79944722  0.18115366    -0.47400
C2893       C  0.61110223  0.74246558  0.21127763     0.74200
O2894       O  0.53786248  0.78863030  0.24084544    -0.59300
O2895       O  0.57449211  0.71407453  0.21971778    -0.49300
O2896       O  0.59788987  0.80128392  0.24331531    -0.55700
C2897       C  0.97324589  0.69858424  0.22140991     0.84400
O2898       O  0.53403535  0.72726815  0.17949596    -0.57600
O2899       O  0.62006286  0.78041459  0.20564766    -0.60900
In2900     In  0.55292721  0.75980191  0.31913304     1.36900
C2901       C  0.56747497  0.80054827  0.27873585     0.76800
O2902       O  0.61919847  0.78289098  0.32388507    -0.61600
O2903       O  0.57108362  0.71552906  0.31136332    -0.52500
C2904       C  0.55790717  0.77582862  0.36397061     0.69500
O2905       O  0.57020263  0.80732047  0.34955293    -0.47400
C2906       C  0.96290127  0.69357096  0.31415441     0.74200
O2907       O  0.53269428  0.78146307  0.28916282    -0.59300
O2908       O  0.99063329  0.69025416  0.30558800    -0.49300
O2909       O  0.59725608  0.80725626  0.29101520    -0.55700
C2910       C  0.60929087  0.74490324  0.31747933     0.84400
O2911       O  0.54260406  0.73776549  0.35526243    -0.57600
O2912       O  0.97682891  0.73184856  0.32276783    -0.60900
In2913     In  0.84167977  0.58001666  0.32323339     1.36900
C2914       C  0.81133516  0.57583317  0.28111877     0.76800
O2915       O  0.88957276  0.65575268  0.32427076    -0.61600
O2916       O  0.90733575  0.61511233  0.31056786    -0.52500
C2917       C  0.82255453  0.57346635  0.36813180     0.69500
O2918       O  0.79506113  0.56262694  0.35244266    -0.47400
C2919       C  0.84802532  0.99708376  0.32789137     0.74200
O2920       O  0.80462292  0.54190331  0.29122445    -0.59300
O2921       O  0.88201452  0.03664104  0.32555248    -0.49300
O2922       O  0.82459707  0.60930941  0.29434038    -0.55700
C2923       C  0.91849945  0.65414065  0.31587410     0.84400
O2924       O  0.85971520  0.59407371  0.36061894    -0.57600
O2925       O  0.81418732  0.99393156  0.32846635    -0.60900
In2926     In  0.85118090  0.58749047  0.21481419     1.36900
C2927       C  0.81457323  0.57880835  0.25558451     0.76800
O2928       O  0.81476592  0.99419580  0.21461936    -0.61600
O2929       O  0.88106565  0.03458481  0.22316567    -0.52500
C2930       C  0.83121492  0.58242357  0.16971308     0.69500
O2931       O  0.80475549  0.57206453  0.18567114    -0.47400
C2932       C  0.92857943  0.66030134  0.22155161     0.74200
O2933       O  0.80640416  0.54574239  0.24377079    -0.59300
O2934       O  0.91725547  0.62126466  0.22667247    -0.49300
O2935       O  0.83465785  0.61572622  0.24464921    -0.55700
C2936       C  0.84727523  0.99571910  0.21870734     0.84400
O2937       O  0.86845157  0.60113966  0.17695838    -0.57600
O2938       O  0.89934482  0.66275964  0.21441878    -0.60900
In2939     In  0.84424939  0.88311123  0.21889485     1.36900
C2940       C  0.83498231  0.87279155  0.26368783     0.76800
O2941       O  0.85911903  0.83362145  0.21920264    -0.61600
O2942       O  0.90946726  0.90512111  0.21596597    -0.52500
C2943       C  0.82157208  0.85921775  0.17586774     0.69500
O2944       O  0.79479241  0.83730681  0.19205040    -0.47400
C2945       C  0.84590342  0.95533177  0.21834538     0.74200
O2946       O  0.80342298  0.84465008  0.25068917    -0.59300
O2947       O  0.87942927  0.95773103  0.21806882    -0.49300
O2948       O  0.86862039  0.90301847  0.25342278    -0.55700
C2949       C  0.89849479  0.86507198  0.21679802     0.84400
O2950       O  0.85868479  0.89162486  0.18204059    -0.57600
O2951       O  0.81127817  0.91575819  0.21837677    -0.60900
In2952     In  0.85025710  0.88926585  0.33316187     1.36900
C2953       C  0.83617954  0.87439927  0.28897278     0.76800
O2954       O  0.81403857  0.91782227  0.33209660    -0.61600
O2955       O  0.88265931  0.96224793  0.33016610    -0.52500
C2956       C  0.85112731  0.88824069  0.37846084     0.69500
O2957       O  0.81866449  0.85611799  0.36712185    -0.47400
C2958       C  0.89794214  0.86363295  0.33042435     0.74200
O2959       O  0.80579930  0.84762923  0.30283393    -0.59300
O2960       O  0.91216450  0.90487374  0.32987054    -0.49300
O2961       O  0.87090858  0.90617202  0.29820950    -0.55700
C2962       C  0.84807777  0.95788250  0.33005682     0.84400
O2963       O  0.88153514  0.91937918  0.36643208    -0.57600
O2964       O  0.85804826  0.83428345  0.33281334    -0.60900
C2965       C  0.72259124  0.71796495  0.95607985     0.85700
C2966       C  0.69792827  0.72055839  0.97584920    -0.54500
C2967       C  0.71195526  0.71981084  0.99751741     0.08700
C2968       C  0.74904415  0.71380830  0.99714830     0.19600
C2969       C  0.76742537  0.75617243  0.96131842    -0.55200
C2970       C  0.78387502  0.75576981  0.98208239     0.08800
C2971       C  0.71974675  0.67577025  0.96031669    -0.54800
C2972       C  0.73172239  0.66988690  0.98164411     0.09300
H2973       H  0.67279317  0.72436992  0.97330545     0.13800
H2974       H  0.76051253  0.71291795  0.01460013    -0.00400
H2975       H  0.78238736  0.78381426  0.94918313     0.14100
H2976       H  0.71069842  0.65337772  0.94562085     0.13900
C2977       C  0.87799425  0.88135306  0.98189876     0.85700
C2978       C  0.91193276  0.88210591  0.99615091    -0.54500
C2979       C  0.89648760  0.84290933  0.00858499     0.08700
C2980       C  0.84621877  0.81644924  0.01262186     0.19600
C2981       C  0.84818375  0.83285767  0.97267393    -0.55200
C2982       C  0.82721073  0.79853489  0.98847361     0.08800
C2983       C  0.85273525  0.88488432  0.00070089    -0.54800
C2984       C  0.83583911  0.85171925  0.01709998     0.09300
H2985       H  0.94522156  0.90454841  0.99134231     0.13800
H2986       H  0.83262590  0.78925143  0.02577554    -0.00400
H2987       H  0.84528923  0.82715749  0.95412100     0.14100
H2988       H  0.84928618  0.91202172  0.00142567     0.13900
C2989       C  0.66381307  0.70305898  0.05749369     0.85700
C2990       C  0.68493912  0.69740960  0.03736203    -0.54500
C2991       C  0.69323478  0.72491198  0.01900490     0.08700
C2992       C  0.68056145  0.75886724  0.02347776     0.19600
C2993       C  0.69369445  0.75336589  0.06322593    -0.55200
C2994       C  0.70534226  0.78429111  0.04599814     0.08800
C2995       C  0.62414918  0.69488140  0.04566709    -0.54800
C2996       C  0.63152410  0.72884058  0.03098078     0.09300
H2997       H  0.69099762  0.67221123  0.03703275     0.13800
H2998       H  0.68811685  0.78186244  0.00875506    -0.00400
H2999       H  0.70727904  0.76241252  0.08046724     0.14100
H3000       H  0.59257178  0.66967293  0.05242530     0.13900
C3001       C  0.80350113  0.86624023  0.07678649     0.85700
C3002       C  0.82524838  0.91358182  0.06762945    -0.54500
C3003       C  0.80732779  0.91731888  0.04802998     0.08700
C3004       C  0.78076156  0.86874364  0.03481260     0.19600
C3005       C  0.75596807  0.84293380  0.07296200    -0.55200
C3006       C  0.74194691  0.83477181  0.05067738     0.08800
C3007       C  0.81756121  0.84645291  0.05892900    -0.54800
C3008       C  0.80923709  0.85090182  0.03645816     0.09300
H3009       H  0.85090620  0.94158356  0.07771864     0.13800
H3010       H  0.77148085  0.87018797  0.01683563    -0.00400
H3011       H  0.73407843  0.82890091  0.08744022     0.14100
H3012       H  0.83864349  0.83743911  0.06307664     0.13900
C3013       C  0.56790743  0.75398792  0.06907675     0.85700
C3014       C  0.59363540  0.80298206  0.06030174    -0.54500
C3015       C  0.58678030  0.80634979  0.03764789     0.08700
C3016       C  0.57900914  0.76311771  0.02470412     0.19600
C3017       C  0.52565571  0.72218930  0.05390596    -0.55200
C3018       C  0.53113376  0.72681645  0.03041071     0.08800
C3019       C  0.59588385  0.74210728  0.06126175    -0.54800
C3020       C  0.60464636  0.74628200  0.03805934     0.09300
H3021       H  0.60271169  0.83011060  0.07237110     0.13800
H3022       H  0.58645216  0.76959866  0.00602437    -0.00400
H3023       H  0.49386384  0.69936307  0.06069720     0.14100
H3024       H  0.60932303  0.73242827  0.07406985     0.13900
C3025       C  0.53539899  0.85234532  0.06677796     0.85700
C3026       C  0.51009118  0.85814029  0.04919592    -0.54500
C3027       C  0.52252069  0.86123750  0.02654097     0.08700
C3028       C  0.56644412  0.86664123  0.02455401     0.19600
C3029       C  0.53358488  0.81353481  0.05620547    -0.55200
C3030       C  0.55733368  0.82249471  0.03632100     0.08800
C3031       C  0.58070844  0.89545804  0.06360997    -0.54800
C3032       C  0.59775987  0.90645039  0.04165790     0.09300
H3033       H  0.97959057  0.85328852  0.05220246     0.13800
H3034       H  0.57847906  0.87221006  0.00656944    -0.00400
H3035       H  0.52141422  0.78440099  0.06708732     0.14100
H3036       H  0.59628495  0.91871971  0.07798206     0.13900
C3037       C  0.99294403  0.72043157  0.97265839     0.85700
C3038       C  0.99377399  0.75896974  0.98286425    -0.54500
C3039       C  0.96847393  0.74896763  0.00216333     0.08700
C3040       C  0.95937987  0.70553116  0.01421638     0.19600
C3041       C  0.50789023  0.70976882  0.98953012    -0.55200
C3042       C  0.00373997  0.71160310  0.01323446     0.08800
C3043       C  0.94722246  0.67701040  0.97517941    -0.54800
C3044       C  0.92881686  0.66622685  0.99681275     0.09300
H3045       H  0.00561319  0.78790373  0.97187392     0.13800
H3046       H  0.94629852  0.69976558  0.03195509    -0.00400
H3047       H  0.53542462  0.71110869  0.98509863     0.14100
H3048       H  0.93159601  0.65408881  0.96063989     0.13900
C3049       C  0.95379507  0.81309477  0.96807376     0.85700
C3050       C  0.92441276  0.82328548  0.97617281    -0.54500
C3051       C  0.91639186  0.81913162  0.99959850     0.08700
C3052       C  0.94254947  0.80353047  0.01255143     0.19600
C3053       C  0.99568996  0.84646105  0.98355201    -0.55200
C3054       C  0.98957565  0.84122519  0.00711100     0.08800
C3055       C  0.93062336  0.76454174  0.97684200    -0.54800
C3056       C  0.93708795  0.76195451  0.99964231     0.09300
H3057       H  0.91431447  0.83745409  0.96406191     0.13800
H3058       H  0.93408011  0.79551298  0.03103386    -0.00400
H3059       H  0.52493203  0.87325169  0.97841154     0.14100
H3060       H  0.92435057  0.73825986  0.96482908     0.13900
C3061       C  0.71017983  0.55934180  0.96216281     0.85700
C3062       C  0.75865394  0.58803948  0.96151820    -0.54500
C3063       C  0.78139813  0.60958710  0.98150722     0.08700
C3064       C  0.75087940  0.60850253  0.99926634     0.19600
C3065       C  0.69787457  0.53080289  0.98376732    -0.55200
C3066       C  0.71763109  0.55537511  0.00353580     0.08800
C3067       C  0.69975694  0.59128358  0.96875818    -0.54800
C3068       C  0.72498998  0.62347540  0.98544892     0.09300
H3069       H  0.77212972  0.58506886  0.94602190     0.13800
H3070       H  0.76755067  0.62899755  0.01505958    -0.00400
H3071       H  0.67314633  0.49490744  0.98412585     0.14100
H3072       H  0.67464721  0.58919599  0.95929954     0.13900
C3073       C  0.83951015  0.56221188  0.97108753     0.85700
C3074       C  0.80868771  0.52986780  0.98994407    -0.54500
C3075       C  0.81045272  0.55018271  0.01042834     0.08700
C3076       C  0.84015363  0.60390739  0.00788106     0.19600
C3077       C  0.83319314  0.59891071  0.96704075    -0.55200
C3078       C  0.82265744  0.61292612  0.98557886     0.08800
C3079       C  0.88172298  0.58768143  0.98430113    -0.54800
C3080       C  0.88670177  0.61790834  0.00076301     0.09300
H3081       H  0.79173499  0.49371413  0.98789045     0.13800
H3082       H  0.84115823  0.62211380  0.02351372    -0.00400
H3083       H  0.83441274  0.61081624  0.94963934     0.14100
H3084       H  0.90856836  0.58913271  0.97804835     0.13900
C3085       C  0.78946552  0.99875595  0.07777705     0.85700
C3086       C  0.81190442  0.97866893  0.07131515    -0.54500
C3087       C  0.79891174  0.95401085  0.05061483     0.08700
C3088       C  0.76954203  0.96419347  0.03631342     0.19600
C3089       C  0.80102451  0.53921176  0.05500273    -0.55200
C3090       C  0.79215559  0.52177467  0.03279344     0.08800
C3091       C  0.74327786  0.95717144  0.07364809    -0.54800
C3092       C  0.73005893  0.95147452  0.05160088     0.09300
H3093       H  0.83342898  0.98169706  0.08415613     0.13800
H3094       H  0.75857033  0.94654559  0.01938664    -0.00400
H3095       H  0.81899043  0.57532320  0.05818081     0.14100
H3096       H  0.73054270  0.92644325  0.08350815     0.13900
C3097       C  0.68070502  0.52195086  0.06583691     0.85700
C3098       C  0.63889581  0.98550899  0.05346705    -0.54500
C3099       C  0.63618240  0.95672984  0.03702584     0.08700
C3100       C  0.68309390  0.97690257  0.02799693     0.19600
C3101       C  0.70021652  0.99116946  0.06819668    -0.55200
C3102       C  0.70468365  0.97178202  0.04909623     0.08800
C3103       C  0.70720800  0.55368247  0.04608577    -0.54800
C3104       C  0.70421912  0.53129491  0.02622623     0.09300
H3105       H  0.61046308  0.98051917  0.05996220     0.13800
H3106       H  0.68338354  0.96042476  0.01195427    -0.00400
H3107       H  0.71047775  0.99021364  0.08533156     0.14100
H3108       H  0.72259461  0.58982913  0.04689658     0.13900
C3109       C  0.71196707  0.56520711  0.57545400     0.85700
C3110       C  0.70785228  0.60217340  0.56903135    -0.54500
C3111       C  0.72344306  0.62304804  0.54763953     0.08700
C3112       C  0.74655359  0.60425108  0.53531480     0.19600
C3113       C  0.69298267  0.53242719  0.55469787    -0.55200
C3114       C  0.71096507  0.55174172  0.53388991     0.08800
C3115       C  0.75844981  0.58780962  0.57394138    -0.54800
C3116       C  0.77905370  0.60785381  0.55335977     0.09300
H3117       H  0.69060872  0.60875120  0.58067811     0.13800
H3118       H  0.76117172  0.62028877  0.51842803    -0.00400
H3119       H  0.66595672  0.49718067  0.55572807     0.14100
H3120       H  0.77207553  0.58311858  0.58889541     0.13900
C3121       C  0.84130010  0.57144176  0.56840533     0.85700
C3122       C  0.88335593  0.59458218  0.55587971    -0.54500
C3123       C  0.88848729  0.62208357  0.53781484     0.08700
C3124       C  0.84211514  0.60793370  0.52954871     0.19600
C3125       C  0.83664906  0.60994097  0.57005978    -0.55200
C3126       C  0.82394303  0.61903714  0.55045610     0.08800
C3127       C  0.81015568  0.53652005  0.54972528    -0.54800
C3128       C  0.81184049  0.55440466  0.52847035     0.09300
H3129       H  0.90969211  0.59662116  0.56372062     0.13800
H3130       H  0.84333902  0.62440675  0.51319607    -0.00400
H3131       H  0.83727676  0.62426224  0.58672173     0.14100
H3132       H  0.79349953  0.50053784  0.55219110     0.13900
C3133       C  0.78317054  0.99207452  0.46681122     0.85700
C3134       C  0.73602142  0.95353483  0.47124162    -0.54500
C3135       C  0.72368998  0.95108190  0.49318787     0.08700
C3136       C  0.76314152  0.96381755  0.50933038     0.19600
C3137       C  0.80119231  0.54091450  0.48444650    -0.55200
C3138       C  0.79155620  0.52423583  0.50664029     0.08800
C3139       C  0.80004077  0.96679979  0.47407572    -0.54800
C3140       C  0.79038768  0.94933592  0.49629982     0.09300
H3141       H  0.71184895  0.93401157  0.45809797     0.13800
H3142       H  0.75251789  0.94923351  0.52685809    -0.00400
H3143       H  0.81963582  0.57687264  0.48098063     0.14100
H3144       H  0.81488996  0.95944817  0.46097686     0.13900
C3145       C  0.66584806  0.50941652  0.47331599     0.85700
C3146       C  0.69391923  0.54352396  0.49211507    -0.54500
C3147       C  0.69400673  0.52406485  0.51225373     0.08700
C3148       C  0.67384322  0.97616943  0.51366208     0.19600
C3149       C  0.69360189  0.98917152  0.47391169    -0.55200
C3150       C  0.69663319  0.96997346  0.49374220     0.08800
C3151       C  0.63214154  0.98529465  0.48633959    -0.54800
C3152       C  0.62755178  0.95678849  0.50339669     0.09300
H3153       H  0.70845046  0.57936986  0.49041506     0.13800
H3154       H  0.67292952  0.96016079  0.53013747    -0.00400
H3155       H  0.70536585  0.98849617  0.45719514     0.14100
H3156       H  0.60486840  0.98284576  0.47988816     0.13900
C3157       C  0.68275201  0.68396140  0.56389084     0.85700
C3158       C  0.73065075  0.71484676  0.57084203    -0.54500
C3159       C  0.75939496  0.72879916  0.55323814     0.08700
C3160       C  0.73614173  0.70369808  0.53066208     0.19600
C3161       C  0.67927011  0.70916168  0.54478394    -0.55200
C3162       C  0.70511277  0.71859917  0.52652399     0.08800
C3163       C  0.67476733  0.64293990  0.55081271    -0.54800
C3164       C  0.70829779  0.65161087  0.53824078     0.09300
H3165       H  0.73993322  0.72719507  0.58843331     0.13800
H3166       H  0.75760811  0.71164256  0.51592041    -0.00400
H3167       H  0.65589045  0.71606216  0.54498347     0.14100
H3168       H  0.64934411  0.60831895  0.55471536     0.13900
C3169       C  0.84797261  0.84714136  0.57406573     0.85700
C3170       C  0.82746608  0.85905352  0.55599807    -0.54500
C3171       C  0.82021433  0.83799839  0.53509419     0.08700
C3172       C  0.83196071  0.80312505  0.53510911     0.19600
C3173       C  0.81810043  0.79502847  0.57580022    -0.55200
C3174       C  0.80506939  0.77138442  0.55539745     0.08800
C3175       C  0.88779389  0.85856042  0.56108231    -0.54800
C3176       C  0.88045214  0.82948536  0.54321701     0.09300
H3177       H  0.82284591  0.88504437  0.55881895     0.13800
H3178       H  0.82530814  0.78515419  0.51834383    -0.00400
H3179       H  0.80512901  0.77894341  0.59238110     0.14100
H3180       H  0.91942133  0.88127409  0.56826279     0.13900
C3181       C  0.66955684  0.72627822  0.46606040     0.85700
C3182       C  0.62914086  0.71344838  0.47899720    -0.54500
C3183       C  0.63588039  0.74286010  0.49656657     0.08700
C3184       C  0.68410567  0.76977890  0.50506327     0.19600
C3185       C  0.69836179  0.77832892  0.46451723    -0.55200
C3186       C  0.71072177  0.80181270  0.48504658     0.08800
C3187       C  0.69063567  0.71527736  0.48427504    -0.54800
C3188       C  0.69712359  0.73601545  0.50515215     0.09300
H3189       H  0.59742800  0.68949251  0.47211729     0.13800
H3190       H  0.69009380  0.78764081  0.52179646    -0.00400
H3191       H  0.71080763  0.79438613  0.44787989     0.14100
H3192       H  0.69583009  0.68968421  0.48161640     0.13900
C3193       C  0.83153622  0.88902543  0.47595082     0.85700
C3194       C  0.83692653  0.86511466  0.49519834    -0.54500
C3195       C  0.81164799  0.85528509  0.51381277     0.08700
C3196       C  0.77999266  0.86925284  0.51030078     0.19600
C3197       C  0.78398085  0.85831363  0.46980496    -0.55200
C3198       C  0.75607321  0.84435715  0.48762114     0.08800
C3199       C  0.83976812  0.93046624  0.48877817    -0.54800
C3200       C  0.80743068  0.92140771  0.50316593     0.09300
H3201       H  0.86108701  0.85935649  0.49485900     0.13800
H3202       H  0.75889772  0.86082019  0.52530455    -0.00400
H3203       H  0.77434531  0.84631450  0.45219259     0.14100
H3204       H  0.86445820  0.96480098  0.48334255     0.13900
C3205       C  0.56859656  0.77026572  0.46415148     0.85700
C3206       C  0.52882809  0.73159446  0.47914001    -0.54500
C3207       C  0.53570350  0.73371587  0.50255611     0.08700
C3208       C  0.58253945  0.77303233  0.50829904     0.19600
C3209       C  0.58965403  0.81673964  0.47555524    -0.55200
C3210       C  0.58404291  0.81498896  0.49877912     0.08800
C3211       C  0.60216524  0.76441193  0.46932153    -0.54800
C3212       C  0.61100162  0.76366465  0.49224063     0.09300
H3213       H  0.49756178  0.70526814  0.47264326     0.13800
H3214       H  0.59204984  0.77826839  0.52676016    -0.00400
H3215       H  0.59434865  0.84424224  0.46544575     0.14100
H3216       H  0.61769764  0.76027734  0.45515143     0.13900
C3217       C  0.52118885  0.85063384  0.47617429     0.85700
C3218       C  0.56567310  0.89559410  0.47884588    -0.54500
C3219       C  0.58592977  0.90724296  0.50007099     0.08700
C3220       C  0.55793586  0.86662490  0.51716521     0.19600
C3221       C  0.52279981  0.81322582  0.48555299    -0.55200
C3222       C  0.55047965  0.82441911  0.50393923     0.08800
C3223       C  0.49666641  0.85430566  0.49525754    -0.54800
C3224       C  0.51187907  0.85749497  0.51754241     0.09300
H3225       H  0.57911026  0.91814564  0.46418473     0.13800
H3226       H  0.57250072  0.87268945  0.53460614    -0.00400
H3227       H  0.51080737  0.78456212  0.47425535     0.14100
H3228       H  0.97249076  0.85682874  0.49106690     0.13900
C3229       C  0.99950411  0.72704662  0.56092943     0.85700
C3230       C  0.51762741  0.71350990  0.54334798    -0.54500
C3231       C  0.00359964  0.71314784  0.52006008     0.08700
C3232       C  0.95879679  0.70658877  0.52092754     0.19600
C3233       C  0.99838603  0.76435434  0.54972940    -0.55200
C3234       C  0.96859477  0.75114830  0.53218701     0.08800
C3235       C  0.95328541  0.68445374  0.56078540    -0.54800
C3236       C  0.93166007  0.66999830  0.53980567     0.09300
H3237       H  0.54766796  0.71908002  0.54664577     0.13800
H3238       H  0.94238106  0.69783875  0.50387758    -0.00400
H3239       H  0.01490108  0.79682486  0.55753434     0.14100
H3240       H  0.93884526  0.66722977  0.57693072     0.13900
C3241       C  0.94973584  0.80281276  0.57376255     0.85700
C3242       C  0.92943389  0.75690281  0.56151760    -0.54500
C3243       C  0.93463121  0.75983878  0.53823484     0.08700
C3244       C  0.93545905  0.80194455  0.52977953     0.19600
C3245       C  0.98940507  0.84141880  0.55902158    -0.55200
C3246       C  0.98244181  0.84077892  0.53560846     0.08800
C3247       C  0.91506841  0.80721059  0.56921150    -0.54800
C3248       C  0.90623255  0.80932996  0.54650435     0.09300
H3249       H  0.92282007  0.72750381  0.57003595     0.13800
H3250       H  0.92602532  0.79800610  0.51134630    -0.00400
H3251       H  0.51640653  0.85605558  0.56735321     0.14100
H3252       H  0.89897659  0.80971220  0.58374587     0.13900
In3253     In  0.47380792  0.82346369  0.72097494     1.36900
C3254       C  0.46350514  0.78684456  0.76165541     0.76800
O3255       O  0.54237197  0.85319690  0.71548371    -0.61600
O3256       O  0.52526198  0.89525844  0.72801821    -0.52500
C3257       C  0.96951149  0.80802750  0.67467036     0.69500
O3258       O  0.96106003  0.77621555  0.68795744    -0.47400
C3259       C  0.92908934  0.84651594  0.72329152     0.74200
O3260       O  0.49817798  0.80697926  0.75101002    -0.59300
O3261       O  0.96800274  0.87175923  0.72880596    -0.49300
O3262       O  0.43203641  0.77607752  0.74944083    -0.55700
C3263       C  0.55429266  0.89236629  0.72149752     0.84400
O3264       O  0.47323385  0.84087293  0.68535338    -0.57600
O3265       O  0.91379924  0.80630883  0.71758486    -0.60900
In3266     In  0.97523197  0.81110969  0.82305383     1.36900
C3267       C  0.46308171  0.78962053  0.78680717     0.76800
O3268       O  0.91539064  0.80233037  0.83190828    -0.61600
O3269       O  0.96903492  0.86627149  0.81949877    -0.52500
C3270       C  0.97441272  0.79937514  0.86838805     0.69500
O3271       O  0.94626716  0.76736020  0.85534768    -0.47400
C3272       C  0.55944935  0.90126130  0.81880748     0.74200
O3273       O  0.98728469  0.77679416  0.79527589    -0.59300
O3274       O  0.52927806  0.90316899  0.81318583    -0.49300
O3275       O  0.43623987  0.79245227  0.79665793    -0.55700
C3276       C  0.93201072  0.84334528  0.82771008     0.84400
O3277       O  0.00508260  0.83224092  0.85771830    -0.57600
O3278       O  0.54884994  0.86379346  0.82672861    -0.60900
In3279     In  0.65953200  0.48637284  0.71310731     1.36900
C3280       C  0.69445417  0.49817312  0.75452688     0.76800
O3281       O  0.68849607  0.55928859  0.70860402    -0.61600
O3282       O  0.62074658  0.51208610  0.70973144    -0.52500
C3283       C  0.68142404  0.49221500  0.66927434     0.69500
O3284       O  0.70903602  0.51083358  0.68529914    -0.47400
C3285       C  0.59815353  0.93256789  0.72019556     0.74200
O3286       O  0.68203136  0.46348961  0.74254222    -0.59300
O3287       O  0.60785308  0.97122615  0.72511909    -0.49300
O3288       O  0.69666653  0.52892074  0.74359381    -0.55700
C3289       C  0.65306529  0.55266237  0.70751818     0.84400
O3290       O  0.64400613  0.46394184  0.67611484    -0.57600
O3291       O  0.62836219  0.93168435  0.71333995    -0.60900
In3292     In  0.66303400  0.49473703  0.82120881     1.36900
C3293       C  0.69561960  0.49979693  0.77995818     0.76800
O3294       O  0.63387340  0.93976386  0.82433025    -0.61600
O3295       O  0.61326889  0.97962678  0.81333136    -0.52500
C3296       C  0.68156572  0.49927286  0.86586707     0.69500
O3297       O  0.71032677  0.51666039  0.85061840    -0.47400
C3298       C  0.66124478  0.56509554  0.82202945     0.74200
O3299       O  0.68132811  0.46579051  0.79270160    -0.59300
O3300       O  0.62788243  0.52502015  0.81985020    -0.49300
O3301       O  0.70129674  0.53312725  0.79016372    -0.55700
C3302       C  0.60347348  0.94099480  0.81823262     0.84400
O3303       O  0.64440793  0.47430715  0.85799687    -0.57600
O3304       O  0.69546028  0.56915137  0.82381967    -0.60900
In3305     In  0.64372930  0.65552330  0.70360593     1.36900
C3306       C  0.66086444  0.67169226  0.74740898     0.76800
O3307       O  0.63556630  0.70933904  0.70499506    -0.61600
O3308       O  0.58071044  0.63917396  0.70812710    -0.52500
C3309       C  0.64647730  0.66596091  0.65901862     0.69500
O3310       O  0.67795254  0.69509315  0.67186929    -0.47400
C3311       C  0.64982465  0.58958501  0.70470720     0.74200
O3312       O  0.68959388  0.69881072  0.73291953    -0.59300
O3313       O  0.61406911  0.58276455  0.70483355    -0.49300
O3314       O  0.62620701  0.63811946  0.73898583    -0.55700
C3315       C  0.59577034  0.68076060  0.70780019     0.84400
O3316       O  0.61527073  0.63165223  0.66920216    -0.57600
O3317       O  0.68255735  0.63040833  0.70277311    -0.60900
In3318     In  0.65782429  0.67297148  0.81746519     1.36900
C3319       C  0.66381464  0.67591688  0.77254970     0.76800
O3320       O  0.69388166  0.64406652  0.81915360    -0.61600
O3321       O  0.62597698  0.59981193  0.82299682    -0.52500
C3322       C  0.68387835  0.70550900  0.85888264     0.69500
O3323       O  0.70869840  0.72443559  0.84162141    -0.47400
C3324       C  0.60426448  0.69212989  0.81863377     0.74200
O3325       O  0.69537495  0.70747192  0.78443638    -0.59300
O3326       O  0.59231527  0.65166660  0.81918711    -0.49300
O3327       O  0.63175838  0.64560724  0.78386688    -0.55700
C3328       C  0.66041938  0.60407129  0.82164056     0.84400
O3329       O  0.64691812  0.67031882  0.85456948    -0.57600
O3330       O  0.64382764  0.72287781  0.81659807    -0.60900
In3331     In  0.51767132  0.71727580  0.71000711     1.36900
C3332       C  0.52703118  0.74896827  0.75422496     0.76800
O3333       O  0.97346856  0.71755666  0.71150893    -0.61600
O3334       O  0.98320140  0.66609479  0.71105117    -0.52500
C3335       C  0.52463932  0.73416934  0.66373466     0.69500
O3336       O  0.53262359  0.76436419  0.67848904    -0.47400
C3337       C  0.56860126  0.69471320  0.71006781     0.74200
O3338       O  0.55856541  0.75968231  0.74215152    -0.59300
O3339       O  0.52953568  0.66649939  0.71450501    -0.49300
O3340       O  0.49331857  0.73026452  0.74241649    -0.55700
C3341       C  0.95740255  0.67575912  0.71243599     0.84400
O3342       O  0.51324922  0.69778267  0.67305079    -0.57600
O3343       O  0.58218102  0.73534127  0.70705959    -0.60900
In3344     In  0.51891399  0.71921888  0.82454654     1.36900
C3345       C  0.52659169  0.74926175  0.78028003     0.76800
O3346       O  0.58561846  0.74231129  0.82404396    -0.61600
O3347       O  0.53451350  0.67144185  0.81967736    -0.52500
C3348       C  0.52112347  0.73630702  0.87085251     0.69500
O3349       O  0.52215775  0.76182841  0.85550614    -0.47400
C3350       C  0.96099177  0.67376057  0.82517060     0.74200
O3351       O  0.55871733  0.76522218  0.79329057    -0.59300
O3352       O  0.98802898  0.66564108  0.82547145    -0.49300
O3353       O  0.49215971  0.72628246  0.79120820    -0.55700
C3354       C  0.57410716  0.70237895  0.82073868     0.84400
O3355       O  0.52191896  0.70532505  0.86245758    -0.57600
O3356       O  0.97583396  0.71501068  0.82694999    -0.60900
In3357     In  0.83231232  0.56912680  0.71392503     1.36900
C3358       C  0.80379708  0.56627547  0.75730587     0.76800
O3359       O  0.80539938  0.98128402  0.71680253    -0.61600
O3360       O  0.87289999  0.03235508  0.71832712    -0.52500
C3361       C  0.81780723  0.56522832  0.66779914     0.69500
O3362       O  0.84163045  0.60165416  0.67890898    -0.47400
C3363       C  0.91232863  0.63946605  0.71457307     0.74200
O3364       O  0.78990261  0.53169651  0.74514372    -0.59300
O3365       O  0.90004532  0.59935517  0.71775184    -0.49300
O3366       O  0.82402057  0.60214841  0.74559327    -0.55700
C3367       C  0.84208496  0.99067202  0.71785593     0.84400
O3368       O  0.79262127  0.53220200  0.68074786    -0.57600
O3369       O  0.88321395  0.64454221  0.71241131    -0.60900
In3370     In  0.83736572  0.56477080  0.82500416     1.36900
C3371       C  0.80549673  0.56493724  0.78320105     0.76800
O3372       O  0.88660513  0.63990939  0.82909696    -0.61600
O3373       O  0.90415405  0.59830786  0.81630621    -0.52500
C3374       C  0.83308437  0.55864697  0.87156007     0.69500
O3375       O  0.80388425  0.55637707  0.85999854    -0.47400
C3376       C  0.84704411  0.98961662  0.83101902     0.74200
O3377       O  0.79442208  0.52935947  0.79354547    -0.59300
O3378       O  0.87557475  0.03012183  0.82545013    -0.49300
O3379       O  0.82562066  0.59969207  0.79611995    -0.55700
C3380       C  0.91595765  0.63686889  0.82313168     0.84400
O3381       O  0.86301397  0.56677184  0.85924065    -0.57600
O3382       O  0.81032926  0.97925313  0.83398036    -0.60900
In3383     In  0.86288654  0.89634266  0.72011827     1.36900
C3384       C  0.86221725  0.89439174  0.76615379     0.76800
O3385       O  0.86388714  0.83763166  0.72147811    -0.61600
O3386       O  0.92299102  0.90632665  0.72188014    -0.52500
C3387       C  0.85767475  0.88487299  0.67424048     0.69500
O3388       O  0.82558838  0.85900316  0.68733252    -0.47400
C3389       C  0.84888075  0.95608719  0.71844806     0.74200
O3390       O  0.82995656  0.86311888  0.75433695    -0.59300
O3391       O  0.88627608  0.96680774  0.71790746    -0.49300
O3392       O  0.89301409  0.92595905  0.75427105    -0.55700
C3393       C  0.90443555  0.86378882  0.72240425     0.84400
O3394       O  0.89121771  0.91616435  0.68487956    -0.57600
O3395       O  0.81821117  0.91406201  0.71964828    -0.60900
In3396     In  0.87611139  0.90339970  0.83755161     1.36900
C3397       C  0.86556791  0.89561703  0.79188323     0.76800
O3398       O  0.82791916  0.91568832  0.83740083    -0.61600
O3399       O  0.89528185  0.97151990  0.83378892    -0.52500
C3400       C  0.88455884  0.91112958  0.88388340     0.69500
O3401       O  0.84937271  0.88084782  0.87382571    -0.47400
C3402       C  0.91106167  0.86404792  0.83242539     0.74200
O3403       O  0.83614332  0.86588575  0.80540851    -0.59300
O3404       O  0.93241165  0.90700254  0.83235191    -0.49300
O3405       O  0.89948718  0.92796986  0.80195465    -0.55700
C3406       C  0.85679948  0.95784352  0.83418402     0.84400
O3407       O  0.91504920  0.93686652  0.87009796    -0.57600
O3408       O  0.87131190  0.84088070  0.83661059    -0.60900
C3409       C  0.94691573  0.76556519  0.61250963    -0.27100
C3410       C  0.95872812  0.80474662  0.60000615    -0.15100
C3411       C  0.97565335  0.84512978  0.61309679     0.35500
C3412       C  0.97834454  0.84461227  0.63713159    -0.26500
C3413       C  0.96545973  0.80530283  0.64919066    -0.15800
C3414       C  0.94992927  0.76561392  0.63671463     0.36600
N3415       N  0.93686796  0.72502340  0.64849850    -0.90000
H3416       H  0.93466429  0.73373314  0.60434266     0.17700
H3417       H  0.48331621  0.87002059  0.64697830     0.17700
N3418       N  0.99073830  0.88774080  0.60288254    -0.89000
H3419       H  0.90491930  0.69988127  0.64440175     0.35000
H3420       H  0.95475802  0.71474174  0.64207452     0.40100
H3421       H  0.96787073  0.88393586  0.59178547     0.39800
H3422       H  0.51600218  0.89335339  0.59599393     0.34700
C3423       C  0.51915022  0.70104020  0.62458585    -0.27100
C3424       C  0.52646100  0.73767666  0.63754631    -0.15100
C3425       C  0.04461910  0.78374607  0.62286042     0.35500
C3426       C  0.03438806  0.77793681  0.59874416    -0.26500
C3427       C  0.01973481  0.73743812  0.58620176    -0.15800
C3428       C  0.51517315  0.69844288  0.60027322     0.36600
N3429       N  0.51133504  0.66127008  0.58911592    -0.90000
H3430       H  0.51623018  0.67339036  0.63346812     0.17700
H3431       H  0.03781585  0.80596496  0.59041363     0.17700
N3432       N  0.06179200  0.82649048  0.63401784    -0.89000
H3433       H  0.53674213  0.67410440  0.57771724     0.35000
H3434       H  0.48278625  0.64122931  0.57998175     0.40100
H3435       H  0.04050479  0.82148021  0.64666785     0.39800
H3436       H  0.06443939  0.84962722  0.62226392     0.34700
C3437       C  0.89206145  0.88909646  0.61138323    -0.27100
C3438       C  0.85328736  0.86656396  0.59895045    -0.15100
C3439       C  0.81672048  0.85393818  0.61165251     0.35500
C3440       C  0.81858835  0.85963443  0.63595717    -0.26500
C3441       C  0.85677614  0.87951124  0.64835522    -0.15800
C3442       C  0.89414573  0.89521857  0.63570679     0.36600
N3443       N  0.93410091  0.91596099  0.64765859    -0.90000
H3444       H  0.92104297  0.90060094  0.60269654     0.17700
H3445       H  0.78976367  0.84823336  0.64517719     0.17700
N3446       N  0.77670546  0.83279434  0.60000107    -0.89000
H3447       H  0.95865139  0.92642880  0.63596345     0.35000
H3448       H  0.93152580  0.89114990  0.65802503     0.40100
H3449       H  0.76540661  0.85180550  0.60340205     0.39800
H3450       H  0.75554102  0.80067410  0.60714586     0.34700
C3451       C  0.62413009  0.63069257  0.62021430    -0.27100
C3452       C  0.64576202  0.67017703  0.63374391    -0.15100
C3453       C  0.66474733  0.71221708  0.62285970     0.35500
C3454       C  0.66880813  0.71448626  0.59861031    -0.26500
C3455       C  0.65615514  0.67577175  0.58546992    -0.15800
C3456       C  0.62785021  0.63298384  0.59608982     0.36600
N3457       N  0.60145543  0.59205738  0.58291688    -0.90000
H3458       H  0.60525660  0.59772432  0.62840154     0.17700
H3459       H  0.68676996  0.74730754  0.59031445     0.17700
N3460       N  0.68043945  0.75220623  0.63643110    -0.89000
H3461       H  0.56968729  0.57792219  0.58657354     0.35000
H3462       H  0.60741710  0.56930108  0.58853790     0.40100
H3463       H  0.65440770  0.74710306  0.64500621     0.39800
H3464       H  0.69229240  0.78008835  0.62567072     0.34700
C3465       C  0.87157154  0.58530821  0.60900065    -0.27100
C3466       C  0.83751545  0.55544307  0.59380742    -0.15100
C3467       C  0.79699799  0.52438347  0.60424860     0.35500
C3468       C  0.79084434  0.52736707  0.62820281    -0.26500
C3469       C  0.82415517  0.56116643  0.64242944    -0.15800
C3470       C  0.86552409  0.58856017  0.63280871     0.36600
N3471       N  0.90170927  0.61988902  0.64727396    -0.90000
H3472       H  0.90300184  0.60909048  0.60203802     0.17700
H3473       H  0.75951740  0.50377908  0.63552876     0.17700
N3474       N  0.76147236  0.49003485  0.59056418    -0.89000
H3475       H  0.92975323  0.63736635  0.63762983     0.35000
H3476       H  0.90472144  0.60096754  0.65946572     0.40100
H3477       H  0.73787984  0.49484054  0.59144469     0.39800
H3478       H  0.74957276  0.45851037  0.59780488     0.34700
C3479       C  0.67436864  0.49789862  0.60382850    -0.27100
C3480       C  0.69720944  0.54514835  0.60018752    -0.15100
C3481       C  0.71489842  0.57378406  0.62031103     0.35500
C3482       C  0.71181451  0.55540115  0.64206246    -0.26500
C3483       C  0.69016247  0.50886028  0.64518318    -0.15800
C3484       C  0.67073077  0.47981349  0.62585906     0.36600
N3485       N  0.64869684  0.43188882  0.62790354    -0.90000
H3486       H  0.66093144  0.47409153  0.58963415     0.17700
H3487       H  0.72516969  0.57789260  0.65699369     0.17700
N3488       N  0.73675943  0.62190399  0.61961435    -0.89000
H3489       H  0.64167059  0.94209889  0.64220388     0.35000
H3490       H  0.66948099  0.42615751  0.63533801     0.40100
H3491       H  0.71536808  0.62894503  0.61536227     0.39800
H3492       H  0.76183533  0.63702640  0.60787701     0.34700
C3493       C  0.79583643  0.52907388  0.90998737    -0.27100
C3494       C  0.83351963  0.55134946  0.89720688    -0.15100
C3495       C  0.87095906  0.56292033  0.90905318     0.35500
C3496       C  0.87127327  0.55926225  0.93326495    -0.26500
C3497       C  0.83467502  0.54216741  0.94658033    -0.15800
C3498       C  0.79559595  0.52195083  0.93400519     0.36600
N3499       N  0.75508218  0.49448406  0.94515082    -0.90000
H3500       H  0.76609480  0.51621828  0.90121161     0.17700
H3501       H  0.90146081  0.57281174  0.94152071     0.17700
N3502       N  0.90986706  0.57962874  0.89728006    -0.89000
H3503       H  0.75334164  0.51286645  0.95820017     0.35000
H3504       H  0.75193753  0.46677962  0.95259199     0.40100
H3505       H  0.92006722  0.60917438  0.88840078     0.39800
H3506       H  0.90453251  0.55484435  0.88565072     0.34700
C3507       C  0.66801870  0.47967739  0.90791651    -0.27100
C3508       C  0.68923347  0.51257929  0.89054045    -0.15100
C3509       C  0.71003266  0.55838500  0.89638634     0.35500
C3510       C  0.71063560  0.57045968  0.91946543    -0.26500
C3511       C  0.69390058  0.53855899  0.93764926    -0.15800
C3512       C  0.67064884  0.49202919  0.93141528     0.36600
N3513       N  0.64934016  0.45696086  0.94834048    -0.90000
H3514       H  0.64949868  0.44409803  0.90323380     0.17700
H3515       H  0.72768941  0.60609884  0.92362613     0.17700
N3516       N  0.72926379  0.59252921  0.87868709    -0.89000
H3517       H  0.64313922  0.97331000  0.94835282     0.35000
H3518       H  0.61695728  0.43556519  0.94404555     0.40100
H3519       H  0.75546599  0.59486393  0.87235302     0.39800
H3520       H  0.74123270  0.62434440  0.88567326     0.34700
C3521       C  0.99965980  0.83586984  0.93172462    -0.27100
C3522       C  0.95878856  0.81327692  0.94146962    -0.15100
C3523       C  0.92303805  0.78546540  0.92621028     0.35500
C3524       C  0.92934621  0.77951831  0.90303883    -0.26500
C3525       C  0.97015174  0.80186279  0.89376761    -0.15800
C3526       C  0.00565949  0.83156640  0.90830973     0.36600
N3527       N  0.04855636  0.85810201  0.90000019    -0.90000
H3528       H  0.02810247  0.85699066  0.94199363     0.17700
H3529       H  0.90174385  0.75840930  0.89188319     0.17700
N3530       N  0.87967872  0.76288355  0.93322108    -0.89000
H3531       H  0.05285113  0.88206015  0.88828556     0.35000
H3532       H  0.55049906  0.83474335  0.89421309     0.40100
H3533       H  0.87446598  0.78671406  0.93755941     0.39800
H3534       H  0.87204582  0.74116951  0.94705726     0.34700
C3535       C  0.54735676  0.75201002  0.91279920    -0.27100
C3536       C  0.51472025  0.73813874  0.89643372    -0.15100
C3537       C  0.98870016  0.72254724  0.90517408     0.35500
C3538       C  0.97793883  0.71493533  0.92872643    -0.26500
C3539       C  0.00843508  0.73093351  0.94681018    -0.15800
C3540       C  0.53952913  0.74739965  0.93712512     0.36600
N3541       N  0.57433640  0.76450314  0.95288717    -0.90000
H3542       H  0.57906651  0.76599898  0.90668237     0.17700
H3543       H  0.94448326  0.69632517  0.93245781     0.17700
N3544       N  0.95433459  0.69844530  0.88860066    -0.89000
H3545       H  0.59683469  0.79911569  0.94972551     0.35000
H3546       H  0.58839948  0.74832504  0.94930108     0.40100
H3547       H  0.96484740  0.70659407  0.87161714     0.39800
H3548       H  0.93424139  0.70795666  0.89111935     0.34700
C3549       C  0.92483284  0.92006564  0.94616314    -0.27100
C3550       C  0.89058864  0.91107393  0.95977877    -0.15100
C3551       C  0.85847319  0.91080650  0.94775824     0.35500
C3552       C  0.85787438  0.91217571  0.92327782    -0.26500
C3553       C  0.88961512  0.91599682  0.90986936    -0.15800
C3554       C  0.92484805  0.92291414  0.92173350     0.36600
N3555       N  0.95984472  0.92964869  0.90940070    -0.90000
H3556       H  0.95018530  0.92065933  0.95408705     0.17700
H3557       H  0.83144560  0.90876186  0.91466204     0.17700
N3558       N  0.82396151  0.90500137  0.96016169    -0.89000
H3559       H  0.97420409  0.95925761  0.89965536     0.35000
H3560       H  0.94814125  0.90223569  0.89812952     0.40100
H3561       H  0.79551393  0.87537600  0.95418243     0.39800
H3562       H  0.82334964  0.93238922  0.95633208     0.34700
C3563       C  0.68041473  0.72206196  0.92309745    -0.29500
C3564       C  0.71383789  0.72070610  0.93051484    -0.15100
C3565       C  0.74085269  0.72198398  0.91344289     0.35500
C3566       C  0.73287473  0.72240652  0.89002208    -0.26500
C3567       C  0.69755825  0.71962881  0.88283745    -0.15800
C3568       C  0.67172302  0.72090692  0.89939422     0.36600
N3569       N  0.63660383  0.72110949  0.89259441    -0.90000
H3570       H  0.65995144  0.72235067  0.93545764     0.17700
H3571       H  0.75258382  0.72115195  0.87738202     0.17700
N3572       N  0.77612537  0.72166947  0.91985109    -0.89000
H3573       H  0.61418689  0.69106990  0.88373232     0.35000
H3574       H  0.64790916  0.74829729  0.88133398     0.40100
H3575       H  0.80380301  0.75058929  0.91299458     0.39800
H3576       H  0.77169209  0.69323345  0.91229986     0.34700
C3577       C  0.84498385  0.85456970  0.41713511    -0.27100
C3578       C  0.85418843  0.89122473  0.40397817    -0.15100
C3579       C  0.86853375  0.93203710  0.41527623     0.35500
C3580       C  0.86914859  0.93418368  0.43955575    -0.26500
C3581       C  0.85473055  0.89573103  0.45311717    -0.15800
C3582       C  0.84598588  0.85672199  0.44149602     0.36600
N3583       N  0.83334433  0.81726340  0.45433276    -0.90000
H3584       H  0.83585953  0.82371746  0.40852014     0.17700
H3585       H  0.87708971  0.96506314  0.44727991     0.17700
N3586       N  0.87964037  0.97064749  0.40209335    -0.89000
H3587       H  0.85384626  0.80898598  0.45008106     0.35000
H3588       H  0.80265716  0.79049195  0.44903056     0.40100
H3589       H  0.91084245  0.99777051  0.40644784     0.39800
H3590       H  0.85956351  0.97918319  0.40701020     0.34700
C3591       C  0.82310498  0.83874042  0.11197305    -0.27100
C3592       C  0.81028473  0.86445968  0.10284373    -0.15100
C3593       C  0.79689311  0.88336308  0.11866336     0.35500
C3594       C  0.79712772  0.87703255  0.14240218    -0.26500
C3595       C  0.81077514  0.85264659  0.15125920    -0.15800
C3596       C  0.82375661  0.83302274  0.13613756     0.36600
N3597       N  0.83776967  0.80774567  0.14544512    -0.90000
H3598       H  0.83193181  0.82238126  0.10055064     0.17700
H3599       H  0.78814917  0.89307219  0.15412879     0.17700
N3600       N  0.78155679  0.90806473  0.11068754    -0.89000
H3601       H  0.84522019  0.79452574  0.13201760     0.35000
H3602       H  0.81208163  0.77990945  0.15420720     0.40100
H3603       H  0.75011314  0.89105663  0.11620728     0.39800
H3604       H  0.79967179  0.93990794  0.11871896     0.34700
C3605       C  0.77958786  0.01818159  0.14339885    -0.27100
C3606       C  0.81894653  0.56733015  0.14513064    -0.15100
C3607       C  0.84787770  0.58808068  0.12659976     0.35500
C3608       C  0.83736612  0.56653244  0.10465948    -0.26500
C3609       C  0.79851719  0.01795633  0.10284387    -0.15800
C3610       C  0.76787243  0.99902349  0.12119735     0.36600
N3611       N  0.72519469  0.95884333  0.11845725    -0.90000
H3612       H  0.75613666  0.00201503  0.15706304     0.17700
H3613       H  0.86058312  0.58309698  0.09093021     0.17700
N3614       N  0.88807862  0.63120217  0.12991651    -0.89000
H3615       H  0.72085995  0.93414350  0.12968565     0.35000
H3616       H  0.70420592  0.96609031  0.12347199     0.40100
H3617       H  0.88997637  0.65389891  0.11812417     0.39800
H3618       H  0.91195855  0.62769994  0.12585825     0.34700
C3619       C  0.76255722  0.99357032  0.42428725    -0.27100
C3620       C  0.79459728  0.00998360  0.44158996    -0.15100
C3621       C  0.83971038  0.55870934  0.43168491     0.35500
C3622       C  0.84654456  0.57600899  0.40900115    -0.26500
C3623       C  0.81287437  0.55943330  0.39297144    -0.15800
C3624       C  0.77184920  0.00845526  0.40124830     0.36600
N3625       N  0.73880393  0.98622159  0.38387838    -0.90000
H3626       H  0.72961852  0.96801457  0.42775267     0.17700
H3627       H  0.87899296  0.60147843  0.40357019     0.17700
N3628       N  0.87652259  0.57515216  0.44578704    -0.89000
H3629       H  0.70926551  0.96155107  0.39121748     0.35000
H3630       H  0.74567884  0.96898714  0.37269846     0.40100
H3631       H  0.87732700  0.54818900  0.45021741     0.39800
H3632       H  0.87533699  0.59010929  0.46081035     0.34700
C3633       C  0.52298278  0.75160290  0.40164455    -0.27100
C3634       C  0.56033103  0.78081652  0.38920639    -0.15100
C3635       C  0.59929800  0.80894912  0.40099740     0.35500
C3636       C  0.60022783  0.80500963  0.42513902    -0.26500
C3637       C  0.56299031  0.77340891  0.43792939    -0.15800
C3638       C  0.52348658  0.74873322  0.42577976     0.36600
N3639       N  0.98396866  0.72767079  0.43718976    -0.90000
H3640       H  0.99049998  0.73401262  0.39215525     0.17700
H3641       H  0.63061054  0.82617694  0.43406177     0.17700
N3642       N  0.63779152  0.84033038  0.38842106    -0.89000
H3643       H  0.96439245  0.69407329  0.43131864     0.35000
H3644       H  0.46635216  0.73455339  0.43315093     0.40100
H3645       H  0.64371889  0.82145642  0.37794087     0.39800
H3646       H  0.66369725  0.85914310  0.39979621     0.34700
C3647       C  0.59597242  0.78420152  0.13362664    -0.27100
C3648       C  0.55587572  0.76300496  0.14347907    -0.15100
C3649       C  0.51918626  0.73419438  0.12972980     0.35500
C3650       C  0.52318387  0.73054287  0.10600421    -0.26500
C3651       C  0.56342710  0.75324188  0.09550651    -0.15800
C3652       C  0.60020462  0.77918770  0.10997410     0.36600
N3653       N  0.64213987  0.80197101  0.10061923    -0.90000
H3654       H  0.62426809  0.80427342  0.14441008     0.17700
H3655       H  0.49403872  0.70995478  0.09622676     0.17700
N3656       N  0.98022244  0.72217059  0.13739683    -0.89000
H3657       H  0.65731805  0.79020880  0.10925069     0.35000
H3658       H  0.65921153  0.83665286  0.10403478     0.40100
H3659       H  0.97777569  0.74521289  0.14626131     0.39800
H3660       H  0.97340491  0.69670706  0.14886747     0.34700
C3661       C  0.70161761  0.69089610  0.11598640    -0.27100
C3662       C  0.67243322  0.68918153  0.13090039    -0.15100
C3663       C  0.63420728  0.67836239  0.12088597     0.35500
C3664       C  0.62777673  0.67344533  0.09669797    -0.26500
C3665       C  0.65873798  0.67974119  0.08118533    -0.15800
C3666       C  0.69491255  0.68556265  0.09160450     0.36600
N3667       N  0.72711859  0.69030045  0.07732139    -0.90000
H3668       H  0.73040141  0.69743582  0.12320390     0.17700
H3669       H  0.59957291  0.66880479  0.09015876     0.17700
N3670       N  0.60225023  0.67534034  0.13466606    -0.89000
H3671       H  0.73079282  0.66542951  0.08215800     0.35000
H3672       H  0.75580288  0.72203560  0.08065571     0.40100
H3673       H  0.61632789  0.70546944  0.14410471     0.39800
H3674       H  0.58961568  0.64828124  0.14612886     0.34700
C3675       C  0.64070555  0.69427838  0.40091419    -0.27100
C3676       C  0.68008503  0.70809081  0.39202350    -0.15100
C3677       C  0.71217941  0.71826049  0.40782699     0.35500
C3678       C  0.70537415  0.71823478  0.43193106    -0.26500
C3679       C  0.66711658  0.70844356  0.44108873    -0.15800
C3680       C  0.63394902  0.69482360  0.42484954     0.36600
N3681       N  0.59350421  0.68270134  0.43197180    -0.90000
H3682       H  0.61508017  0.68482419  0.38902400     0.17700
H3683       H  0.73133050  0.72870367  0.44369389     0.17700
N3684       N  0.75159812  0.72874504  0.39942461    -0.89000
H3685       H  0.58803089  0.70401534  0.42363287     0.35000
H3686       H  0.57008652  0.64949352  0.42642593     0.40100
H3687       H  0.74468540  0.69972366  0.39111144     0.39800
H3688       H  0.77198489  0.73547927  0.41324094     0.34700
C3689       C  0.70601770  0.55711999  0.41217935    -0.27100
C3690       C  0.66819730  0.53111821  0.39919008    -0.15100
C3691       C  0.62911127  0.50731310  0.41138941     0.35500
C3692       C  0.64233987  0.01535179  0.43701452    -0.26500
C3693       C  0.66662975  0.52754250  0.44889513    -0.15800
C3694       C  0.70578908  0.55627914  0.43673619     0.36600
N3695       N  0.74548917  0.58331281  0.44924794    -0.90000
H3696       H  0.73606211  0.57739386  0.40311875     0.17700
H3697       H  0.61103098  0.99554323  0.44443116     0.17700
N3698       N  0.60399927  0.99197435  0.40066164    -0.89000
H3699       H  0.77079313  0.60374219  0.43789639     0.35000
H3700       H  0.75104148  0.56161704  0.45688642     0.40100
H3701       H  0.60149859  0.96756723  0.38992554     0.39800
H3702       H  0.60247925  0.01470488  0.39074758     0.34700
C3703       C  0.64502935  0.52064029  0.10318238    -0.27100
C3704       C  0.68286163  0.54115465  0.09034779    -0.15100
C3705       C  0.72172437  0.56649273  0.10340510     0.35500
C3706       C  0.72118484  0.56277859  0.12779305    -0.26500
C3707       C  0.68275399  0.53595942  0.13994296    -0.15800
C3708       C  0.64441800  0.51743119  0.12731124     0.36600
N3709       N  0.60351094  0.49277116  0.13817105    -0.90000
H3710       H  0.61581124  0.98479225  0.09643112     0.17700
H3711       H  0.75104331  0.58064837  0.13724500     0.17700
N3712       N  0.76228534  0.59463413  0.09237235    -0.89000
H3713       H  0.60219260  0.51458858  0.14910076     0.35000
H3714       H  0.59873413  0.46588047  0.14762238     0.40100
H3715       H  0.76306979  0.61911241  0.08273340     0.39800
H3716       H  0.76598963  0.57500065  0.08115674     0.34700
C3717       C  0.53627153  0.83745153  0.13405755    -0.27100
C3718       C  0.49418871  0.81717451  0.14049901    -0.15100
C3719       C  0.46483170  0.80838164  0.12286354     0.35500
C3720       C  0.47834972  0.82007554  0.09939168    -0.26500
C3721       C  0.52128738  0.84215144  0.09288202    -0.15800
C3722       C  0.55004581  0.84969109  0.11097517     0.36600
N3723       N  0.59420666  0.87156209  0.10650205    -0.90000
H3724       H  0.55958918  0.84591195  0.14736453     0.17700
H3725       H  0.45491481  0.81151938  0.08621082     0.17700
N3726       N  0.92276163  0.80453698  0.12974944    -0.89000
H3727       H  0.60240295  0.85111489  0.11243344     0.35000
H3728       H  0.61194178  0.90160059  0.11620800     0.40100
H3729       H  0.90713772  0.77221194  0.13690637     0.39800
H3730       H  0.90545119  0.80097749  0.11498337     0.34700
C3731       C  0.95821841  0.81306984  0.41663503    -0.27100
C3732       C  0.48972593  0.82214747  0.40053936    -0.15100
C3733       C  0.53171786  0.84996150  0.40894235     0.35500
C3734       C  0.53966598  0.85545244  0.43294017    -0.26500
C3735       C  0.50742779  0.84100674  0.44972993    -0.15800
C3736       C  0.46480394  0.81399353  0.44114151     0.36600
N3737       N  0.93330024  0.80475255  0.45700650    -0.90000
H3738       H  0.92574572  0.79544539  0.41051271     0.17700
H3739       H  0.57240360  0.87278784  0.43820616     0.17700
N3740       N  0.56648697  0.87629467  0.39303878    -0.89000
H3741       H  0.93192281  0.78049954  0.46723481     0.35000
H3742       H  0.90412459  0.78787978  0.44825132     0.40100
H3743       H  0.56692252  0.85456530  0.38172027     0.39800
H3744       H  0.59572709  0.89506625  0.40180501     0.34700
loop_ 
_geom_bond_atom_site_label_1 
_geom_bond_atom_site_label_2 
_geom_bond_distance 
_geom_bond_site_symmetry_2 
_ccdc_geom_bond_type 
In1           O3   2.246       .  S
In1           O4   2.177       .  S
In1           O8   2.394       .  S
In1          O10   2.203       .  S
In1        O1884   2.293       .  S
In1        O1878   2.302       .  S
In1        O1881   2.179       .  S
In1        O1885   2.265       .  S
C2            O8   1.275       .  A
C2           O10   1.250       .  A
C2           C15   1.504       .  S
O3           C11   1.268       .  A
O4           C11   1.260       .  A
C5           O12   1.256       .  A
C5            O6   1.277       .  A
C5          C924   1.496       .  S
O6        In1873   2.306       .  S
C7            O9   1.260       .  A
C7           O13   1.269       .  A
C7           C50   1.449       .  S
O9        In1873   2.166   1_455  S
C11         C150   1.447       .  S
O12       In1873   2.238       .  S
O13       In1873   2.263   1_455  S
In14         O19   2.287       .  S
In14         O21   2.396       .  S
In14         O22   2.187       .  S
In14         O23   2.203       .  S
In14         O26   2.237       .  S
In14       O1888   2.265       .  S
In14       O1889   2.183       .  S
In14       O1897   2.301       .  S
C15          O21   1.273       .  A
C15          O23   1.250       .  A
O16       In1886   2.253   1_455  S
O16          C24   1.267       .  A
O17       In1886   2.208   1_455  S
O17          C24   1.262       .  A
C18          O25   1.254       .  A
C18        O1891   1.271       .  A
C18         C910   1.504       .  S
O19        C1890   1.267       .  A
C20          O22   1.259       .  A
C20          O26   1.266       .  A
C20         C141   1.445       .  S
C24          C33   1.458       .  S
O25       In1886   2.280       .  S
In27         O29   2.231       .  S
In27         O30   2.177       .  S
In27         O38   2.193       .  S
In27         O32   2.340       .  S
In27         O34   2.286       .  S
In27         O35   2.190   1_545  S
In27         O36   2.302   1_545  S
In27        O975   2.248   1_545  S
C28          O34   1.261       .  A
C28          O36   1.262   1_545  A
C28          C41   1.497       .  S
O29          C37   1.266       .  A
O30          C37   1.264       .  A
C31          O38   1.250       .  A
C31          O32   1.280       .  A
C31         C899   1.505       .  S
C33          O39   1.265       .  A
C33         O971   1.264       .  A
O35         C969   1.264       .  A
C37          C72   1.444       .  S
O39        In963   2.254       .  S
In40         O43   2.168   1_545  S
In40         O51   2.189       .  S
In40         O45   2.321       .  S
In40         O47   2.284       .  S
In40         O48   2.184       .  S
In40         O49   2.304   1_545  S
In40         O52   2.209       .  S
In40        O978   2.254   1_545  S
C41          O47   1.260       .  A
C41          O49   1.263   1_545  A
O42        In976   2.256       .  S
O42          C50   1.269       .  A
O43         C986   1.263       .  A
C44          O51   1.248       .  A
C44          O45   1.279       .  A
C44         C882   1.503       .  S
C46          O48   1.264       .  A
C46          O52   1.265       .  A
C46          C63   1.440       .  S
C50         O979   1.262       .  A
In53         O55   2.202       .  S
In53         O56   2.170       .  S
In53         O64   2.208       .  S
In53         O58   2.262       .  S
In53         O60   2.290       .  S
In53         O61   2.174       .  S
In53         O62   2.152       .  S
In53         O65   2.198       .  S
C54          O60   1.281       .  A
C54          O62   1.265       .  A
C54          C67   1.472       .  S
O55          C63   1.271       .  A
O56          C63   1.269       .  A
C57          O64   1.267       .  A
C57          O58   1.279       .  A
C57         C868   1.486       .  S
C59          O61   1.269       .  A
C59          O65   1.274       .  A
C59         C102   1.445       .  S
In66         O68   2.210       .  S
In66         O69   2.171       .  S
In66         O77   2.212       .  S
In66         O71   2.267       .  S
In66         O73   2.290       .  S
In66         O74   2.153       .  S
In66         O75   2.150       .  S
In66         O78   2.219       .  S
C67          O73   1.282       .  A
C67          O75   1.266       .  A
O68          C76   1.275       .  A
O69          C76   1.268       .  A
C70          O77   1.267       .  A
C70          O71   1.279       .  A
C70         C854   1.492       .  S
C72          O74   1.268       .  A
C72          O78   1.274       .  A
C76          C85   1.447       .  S
In79         O90   2.177       .  S
In79         O84   2.268       .  S
In79         O86   2.268       .  S
In79         O87   2.208       .  S
In79         O88   2.224       .  S
In79         O91   2.226       .  S
In79       O1953   2.222   1_455  S
In79       O1954   2.211       .  S
C80          O86   1.259       .  A
C80          O88   1.254       .  A
C80          C93   1.461       .  S
O81       In1951   2.218       .  S
O81          C89   1.264       .  A
O82       In1951   2.228       .  S
O82          C89   1.265       .  A
C83          O90   1.249       .  A
C83          O84   1.269       .  A
C83         C840   1.464       .  S
C85          O87   1.263       .  A
C85          O91   1.261       .  A
C89         C124   1.455       .  S
In92         O94   2.228       .  S
In92         O95   2.217       .  S
In92        O103   2.185       .  S
In92         O97   2.277       .  S
In92         O99   2.270       .  S
In92        O101   2.229       .  S
In92       O1972   2.217   1_455  S
In92       O1976   2.239   1_455  S
C93          O99   1.259       .  A
C93         O101   1.253       .  A
O94         C102   1.260       .  A
O95         C102   1.261       .  A
C96         O103   1.249       .  A
C96          O97   1.266       .  A
C96         C826   1.464       .  S
C98         O100   1.269       .  A
C98         O104   1.267       .  A
C98         C115   1.456       .  S
O100      In1964   2.217       .  S
O104      In1964   2.217       .  S
In105       O107   2.231       .  S
In105       O108   2.216       .  S
In105       O116   2.226       .  S
In105       O110   2.277       .  S
In105       O112   2.233       .  S
In105       O114   2.294       .  S
In105      O1049   2.204       .  S
In105      O1053   2.225       .  S
C106        O112   1.255       .  A
C106        O114   1.262       .  A
C106        C119   1.472       .  S
O107        C115   1.267       .  A
O108        C115   1.263       .  A
C109        O116   1.255       .  A
C109        O110   1.272       .  A
C109        C815   1.490       .  S
C111        O113   1.264       .  A
C111        O117   1.262       .  A
C111        C154   1.453       .  S
O113      In1041   2.208       .  S
O117      In1041   2.241       .  S
In118       O129   2.232       .  S
In118       O123   2.259       .  S
In118       O125   2.236       .  S
In118       O126   2.228       .  S
In118       O127   2.296       .  S
In118       O130   2.221       .  S
In118      O1056   2.222       .  S
In118      O1057   2.235       .  S
C119        O125   1.253       .  A
C119        O127   1.261       .  A
O120      In1054   2.227       .  S
O120        C128   1.260       .  A
O121      In1054   2.232       .  S
O121        C128   1.262       .  A
C122        O129   1.253       .  A
C122        O123   1.268       .  A
C122        C798   1.479       .  S
C124        O126   1.264       .  A
C124        O130   1.263       .  A
C128        C137   1.452       .  S
In131       O133   2.213       .  S
In131       O134   2.175       .  S
In131       O142   2.192       .  S
In131       O136   2.238       .  S
In131       O138   2.284       .  S
In131       O139   2.202       .  S
In131       O140   2.150       .  S
In131       O143   2.204       .  S
C132        O138   1.278       .  A
C132        O140   1.264       .  A
C132        C145   1.466       .  S
O133        C141   1.270       .  A
O134        C141   1.269       .  A
C135        O142   1.266       .  A
C135        O136   1.279       .  A
C135        C787   1.477       .  S
C137        O139   1.269       .  A
C137        O143   1.271       .  A
In144       O146   2.229       .  S
In144       O147   2.173       .  S
In144       O155   2.188       .  S
In144       O149   2.242       .  S
In144       O151   2.283       .  S
In144       O152   2.158       .  S
In144       O153   2.140       .  S
In144       O156   2.225       .  S
C145        O151   1.281       .  A
C145        O153   1.264       .  A
O146        C154   1.275       .  A
O147        C154   1.266       .  A
C148        O155   1.265       .  A
C148        O149   1.280       .  A
C148        C770   1.473       .  S
C150        O152   1.268       .  A
C150        O156   1.273       .  A
C157        C158   1.510       .  S
C157        C163   1.539       .  S
C157        C161   1.546       .  S
C157        C756   1.544       .  S
C158        H165   1.087       .  S
C158        C159   1.358   1_556  D
C159        C160   1.611       .  S
C159        C183   1.502       .  S
C160        C164   1.596   1_554  S
C160        C162   1.536   1_554  S
C160        H166   1.109       .  S
C161        H167   1.080       .  S
C161        C162   1.372       .  D
C162        C174   1.517       .  S
C163        H168   1.074       .  S
C163        C164   1.376       .  D
C164        C260   1.582       .  S
C169        C170   1.549       .  S
C169        C175   1.522       .  S
C169        C173   1.531       .  S
C169        C742   1.550       .  S
C170        H177   1.085       .  S
C170        C171   1.392       .  D
C171        C172   1.597   1_556  S
C171        C243   1.570       .  S
C172        C176   1.600       .  S
C172        C174   1.546   1_554  S
C172        H178   1.109       .  S
C173        H179   1.081       .  S
C173        C174   1.361       .  D
C175        H180   1.086       .  S
C175        C176   1.360   1_556  D
C176        C200   1.508       .  S
C181        C182   1.515       .  S
C181        C187   1.552       .  S
C181        C185   1.536       .  S
C181        C857   1.550       .  S
C182        H189   1.086       .  S
C182        C183   1.360       .  D
C183        C184   1.610       .  S
C184        C188   1.597       .  S
C184        C186   1.541       .  S
C184        H190   1.109       .  S
C185        H191   1.081       .  S
C185        C186   1.369       .  D
C186        C198   1.522       .  S
C187        H192   1.084       .  S
C187        C188   1.387       .  D
C188        C212   1.580       .  S
C193        C194   1.540       .  S
C193        C199   1.518       .  S
C193        C197   1.548       .  S
C193        C784   1.543       .  S
C194        H201   1.075       .  S
C194        C195   1.372       .  D
C195        C196   1.602       .  S
C195        C279   1.578       .  S
C196        C200   1.609       .  S
C196        C198   1.543       .  S
C196        H202   1.109       .  S
C197        H203   1.082       .  S
C197        C198   1.366       .  D
C199        H204   1.087       .  S
C199        C200   1.361       .  D
C205        C206   1.531       .  S
C205        C211   1.475       .  S
C205        C209   1.602       .  S
C205        C843   1.534       .  S
C206        H213   1.080       .  S
C206        C207   1.349       .  D
C207        C208   1.617       .  S
C207        C222   1.586       .  S
C208        C212   1.648       .  S
C208        C210   1.541       .  S
C208        H214   1.106       .  S
C209        H215   1.080       .  S
C209        C210   1.371       .  D
C210       C2106   1.535       .  S
C211        H216   1.084       .  S
C211        C212   1.369       .  D
C217        C218   1.511   1_455  S
C217        C223   1.510       .  S
C217        C221   1.522       .  S
C217        C913   1.574       .  S
C218       H2097   1.081       .  S
C218        C219   1.384   1_655  D
C219        C220   1.632       .  S
C219       C2118   1.549   1_455  S
C220        C224   1.580       .  S
C220        C222   1.583       .  S
C220        H226   1.110       .  S
C221        H227   1.080       .  S
C221        C222   1.394       .  D
C223        H228   1.077       .  S
C223        C224   1.372       .  D
C224        C291   1.552       .  S
H225       C2090   1.083       .  S
C229        C230   1.520       .  S
C229        C235   1.537       .  S
C229       C2105   1.514       .  S
C229        C731   1.578       .  S
C230        H237   1.077       .  S
C230        C231   1.391   1_556  D
C231        C232   1.580       .  S
C231        C248   1.577       .  S
C232        C236   1.561       .  S
C232        C234   1.624       .  S
C232        H238   1.110       .  S
C233       C2101   1.519   1_455  S
C233        H239   1.082       .  S
C233       C2106   1.382   1_556  D
C234       C2105   1.383   1_554  D
C234       C2082   1.532       .  S
C235        H240   1.078       .  S
C235        C236   1.380   1_556  D
C236        C272   1.560       .  S
C241        C242   1.474       .  S
C241        C247   1.526       .  S
C241        C245   1.616       .  S
C241        C714   1.541       .  S
C242        H249   1.083       .  S
C242        C243   1.365       .  D
C243        C244   1.636   1_556  S
C244        C248   1.606       .  S
C244        C246   1.538       .  S
C244        H250   1.104       .  S
C245       H2123   1.080       .  S
C245        C246   1.380   1_556  D
C246       C2091   1.544       .  S
C247        H252   1.087       .  S
C247        C248   1.353   1_556  D
H251       C2117   1.080   1_455  S
C253        C254   1.502       .  S
C253        C259   1.492       .  S
C253        C257   1.551       .  S
C253        C703   1.557       .  S
C254        H261   1.075       .  S
C254        C255   1.372       .  D
C255        C256   1.590   1_556  S
C255        C270   1.572       .  S
C256        C260   1.619   1_554  S
C256        C258   1.567       .  S
C256        H262   1.107       .  S
C257        H263   1.076   1_545  S
C257        C258   1.370   1_556  D
C258        C296   1.509       .  S
C259        H264   1.083       .  S
C259        C260   1.384       .  D
C265        C266   1.531       .  S
C265        C271   1.526       .  S
C265        C269   1.530       .  S
C265        C689   1.550       .  S
C266        H273   1.080   1_545  S
C266        C267   1.369   1_556  D
C267        C268   1.589       .  S
C267        C282   1.528       .  S
C268        C272   1.630       .  S
C268        C270   1.576   1_554  S
C268        H274   1.108       .  S
C269        H275   1.087       .  S
C269        C270   1.362       .  D
C271        H276   1.085       .  S
C271        C272   1.384   1_556  D
C277        C278   1.490       .  S
C277        C283   1.542       .  S
C277       C1217   1.591       .  S
C277        C801   1.562       .  S
C278        H285   1.082       .  S
C278        C279   1.399       .  D
C279        C280   1.639       .  S
C280        C284   1.612       .  S
C280       C1218   1.561       .  S
C280        H286   1.106       .  S
C281       C1213   1.554       .  S
C281        H287   1.084       .  S
C281        C282   1.376       .  D
C282       C1216   1.585   1_545  S
C283        H288   1.089       .  S
C283        C284   1.329       .  D
C284        C294   1.568       .  S
C289        C295   1.518       .  S
C289       C1226   1.530   1_545  S
C289       C1229   1.514   1_545  S
C289        C896   1.566       .  S
C290       C1225   1.525       .  S
C290        H297   1.084       .  S
C290        C291   1.377       .  D
C291        C292   1.587       .  S
C292        C294   1.544       .  S
C292       C1232   1.593       .  S
C292        H298   1.108       .  S
C293       C1225   1.511       .  S
C293        H299   1.077       .  S
C293        C294   1.386       .  D
C295        H300   1.082       .  S
C295        C296   1.379       .  D
C296       C1228   1.602   1_545  S
C301        C302   1.478       .  S
C301        C307   1.537       .  S
C301        C305   1.587       .  S
C301        C672   1.552       .  S
C302        H309   1.083       .  S
C302        C303   1.390       .  D
C303        C304   1.638       .  S
C303        C356   1.581       .  S
C304        C308   1.604       .  S
C304        C306   1.553       .  S
C304        H310   1.105       .  S
C305        H311   1.078       .  S
C305        C306   1.366       .  D
C306        C339   1.527       .  S
C307        H312   1.087       .  S
C307        C308   1.345       .  D
C308        C318   1.574       .  S
C313        C314   1.520       .  S
C313        C319   1.519       .  S
C313        C317   1.503       .  S
C313        C658   1.566       .  S
C314        H321   1.084       .  S
C314        C315   1.370       .  D
C315        C316   1.595       .  S
C315        C428   1.549       .  S
C316        C320   1.604       .  S
C316        C318   1.564       .  S
C316        H322   1.109       .  S
C317        H323   1.082       .  S
C317        C318   1.386       .  D
C319        H324   1.081   1_545  S
C319        C320   1.385       .  D
C320        C330   1.517       .  S
C325        C326   1.533       .  S
C325        C331   1.489       .  S
C325       C1265   1.565       .  S
C325        C812   1.552       .  S
C326        H333   1.082       .  S
C326        C327   1.348       .  D
C327        C328   1.601       .  S
C327        C342   1.576       .  S
C328        C332   1.625       .  S
C328       C1266   1.554       .  S
C328        H334   1.106       .  S
C329       C1261   1.560       .  S
C329        H335   1.082       .  S
C329        C330   1.368       .  D
C330       C1264   1.557   1_545  S
C331        H336   1.082       .  S
C331        C332   1.390       .  D
C332        C392   1.570       .  S
C337        C338   1.515       .  S
C337       C1279   1.523   1_545  S
C337       C1277   1.518   1_545  S
C337        C885   1.553       .  S
C338        H345   1.081       .  S
C338        C339   1.374       .  D
C339       C1276   1.606   1_545  S
C340        C344   1.611       .  S
C340        C342   1.568       .  S
C340       C1275   1.606       .  S
C340        H346   1.109       .  S
C341       C1273   1.513       .  S
C341        H347   1.078       .  S
C341        C342   1.381       .  D
C343       C1273   1.524       .  S
C343        H348   1.084       .  S
C343        C344   1.379       .  D
C344        C411   1.562       .  S
C349        C350   1.552       .  S
C349        C355   1.546       .  S
C349        C353   1.513       .  S
C349        C647   1.546       .  S
C350        H357   1.081       .  S
C350        C351   1.367       .  D
C351        C352   1.531       .  S
C351        C366   1.511       .  S
C352        C356   1.595       .  S
C352        C354   1.612       .  S
C352        H358   1.108       .  S
C353        H359   1.087       .  S
C353        C354   1.362       .  D
C354        C380   1.502       .  S
C355        H360   1.076       .  S
C355        C356   1.373       .  D
C361        C362   1.516       .  S
C361        C367   1.550       .  S
C361        C365   1.538       .  S
C361        C630   1.541       .  S
C362        H369   1.086       .  S
C362        C363   1.355       .  D
C363        C364   1.596       .  S
C363        C387   1.494       .  S
C364        C368   1.593       .  S
C364        C366   1.538       .  S
C364        H370   1.109       .  S
C365        H371   1.081       .  S
C365        C366   1.364       .  D
C367        H372   1.083       .  S
C367        C368   1.388       .  D
C368        C440   1.567       .  S
C373        C374   1.549       .  S
C373        C379   1.524       .  S
C373        C377   1.536       .  S
C373        C871   1.551       .  S
C374        H381   1.082       .  S
C374        C375   1.388       .  D
C375        C376   1.601       .  S
C375        C404   1.576       .  S
C376        C380   1.597       .  S
C376        C378   1.548       .  S
C376        H382   1.109       .  S
C377        H383   1.081       .  S
C377        C378   1.366       .  D
C378        C390   1.523       .  S
C379        H384   1.086       .  S
C379        C380   1.359       .  D
C385        C386   1.506       .  S
C385        C391   1.539       .  S
C385        C389   1.543       .  S
C385        C773   1.533       .  S
C386        H393   1.087       .  S
C386        C387   1.356       .  D
C387        C388   1.613       .  S
C388        C392   1.594       .  S
C388        C390   1.540       .  S
C388        H394   1.109       .  S
C389        H395   1.080       .  S
C389        C390   1.372       .  D
C391        H396   1.083       .  S
C391        C392   1.373       .  D
C397        C398   1.604       .  S
C397        C403   1.481       .  S
C397        C401   1.529       .  S
C397        C829   1.538       .  S
C398        H405   1.076   1_455  S
C398        C399   1.369       .  D
C399        C400   1.548       .  S
C399       C2295   1.546   1_455  S
C400        C404   1.644       .  S
C400        C402   1.610       .  S
C400        H406   1.105       .  S
C401        H407   1.087       .  S
C401        C402   1.351       .  D
C402        C414   1.575       .  S
C403        H408   1.082       .  S
C403        C404   1.368       .  D
C409        C410   1.529       .  S
C409        C415   1.518       .  S
C409        C413   1.520       .  S
C409        C927   1.575       .  S
C410        H417   1.079       .  S
C410        C411   1.373       .  D
C411        C412   1.571       .  S
C412        C416   1.626       .  S
C412        C414   1.585       .  S
C412        H418   1.109       .  S
C413        H419   1.076       .  S
C413        C414   1.392       .  D
C415       H2292   1.083   1_455  S
C415        C416   1.384       .  D
C416       C2310   1.542   1_455  S
H420       C2287   1.084       .  S
C421        C427   1.523       .  S
C421        C425   1.549       .  S
C421       C2294   1.515       .  S
C421        C619   1.586       .  S
C422       C2293   1.518   1_455  S
C422        H429   1.083       .  S
C422       C2295   1.378   1_455  D
C423        C424   1.624       .  S
C423       C2294   1.377       .  D
C423       C2271   1.544       .  S
C424        C428   1.570       .  S
C424        C426   1.569       .  S
C424        H430   1.110       .  S
C425        H431   1.063       .  S
C425        C426   1.395       .  D
C426        C435   1.574       .  S
C427        H432   1.085       .  S
C427        C428   1.378       .  D
C433        C434   1.525       .  S
C433        C439   1.482       .  S
C433        C437   1.602       .  S
C433        C602   1.537       .  S
C434        H441   1.079       .  S
C434        C435   1.352       .  D
C435        C436   1.607       .  S
C436        C440   1.629       .  S
C436        C438   1.529       .  S
C436        H442   1.105       .  S
C437       H2315   1.082       .  S
C437        C438   1.378       .  D
C438       C2288   1.533       .  S
C439        H444   1.086       .  S
C439        C440   1.366       .  D
H443       C2309   1.083   1_455  S
In445       O447   2.233   1_655  S
In445       O448   2.204   1_655  S
In445       O456   2.154       .  S
In445       O452   2.230       .  S
In445       O454   2.253       .  S
In445      O2322   2.268       .  S
In445      O2325   2.206       .  S
In445      O2329   2.199       .  S
C446        O452   1.256       .  A
C446        O454   1.255       .  A
C446        C459   1.457       .  S
O447        C455   1.266       .  A
O448        C455   1.264       .  A
C449        O450   1.269       .  A
C449       O2328   1.250       .  A
C449        C605   1.477       .  S
O450      In2317   2.279       .  S
C451        O453   1.262       .  A
C451        O457   1.261       .  A
C451        C585   1.440       .  S
O453      In2317   2.197       .  S
C455        C477   1.454       .  S
O456       C2321   1.250       .  A
O457      In2317   2.219       .  S
In458       O460   2.216       .  S
In458       O461   2.179       .  S
In458       O469   2.196       .  S
In458       O463   2.258       .  S
In458       O465   2.254       .  S
In458      O2338   2.212       .  S
In458      O2339   2.245       .  S
In458      O2342   2.223       .  S
C459        O467   1.256       .  A
C459       O2337   1.256       .  A
O460        C468   1.261       .  A
O461        C468   1.263       .  A
C462        O469   1.250       .  A
C462        O463   1.268       .  A
C462        C717   1.466       .  S
C464        O466   1.265       .  A
C464        O470   1.266       .  A
C464        C494   1.447       .  S
O465       C2331   1.256       .  A
O466      In2330   2.202   1_455  S
O467      In2330   2.242       .  S
C468        C594   1.434       .  S
O470      In2330   2.218   1_455  S
In471       O473   2.227       .  S
In471       O474   2.224       .  S
In471       O482   2.216   1_545  S
In471       O476   2.261       .  S
In471       O478   2.276   1_545  S
In471       O480   2.213       .  S
In471      O1415   2.205   1_545  S
In471      O1419   2.224   1_545  S
C472        O478   1.261   1_545  A
C472        O480   1.255       .  A
C472        C485   1.464       .  S
O473        C481   1.259       .  A
O474        C481   1.261       .  A
C475        O482   1.253   1_545  A
C475        O476   1.265       .  A
C475        C675   1.473       .  S
C477        O479   1.265       .  A
C477        O483   1.268       .  A
O479      In1407   2.199       .  S
C481        C503   1.449       .  S
O483      In1407   2.234       .  S
In484       O495   2.228       .  S
In484       O489   2.266   1_565  S
In484       O491   2.289       .  S
In484       O492   2.238   1_565  S
In484       O493   2.220   1_565  S
In484       O496   2.228   1_565  S
In484      O1422   2.227       .  S
In484      O1423   2.202       .  S
C485        O491   1.260   1_545  A
C485        O493   1.253       .  A
O486      In1420   2.216       .  S
O486        C494   1.266       .  A
O487      In1420   2.201       .  S
O487        C494   1.265       .  A
C488        O495   1.252   1_545  A
C488        O489   1.265       .  A
C488        C700   1.476       .  S
C490        O492   1.262       .  A
C490        O496   1.259       .  A
C490        C520   1.454       .  S
In497       O499   2.224       .  S
In497       O500   2.168       .  S
In497       O508   2.196       .  S
In497       O502   2.237       .  S
In497       O504   2.272       .  S
In497       O505   2.189       .  S
In497       O506   2.145       .  S
In497       O509   2.202       .  S
C498        O504   1.280       .  A
C498        O506   1.266       .  A
C498        C511   1.463       .  S
O499        C507   1.272       .  A
O500        C507   1.269       .  A
C501        O508   1.267       .  A
C501        O502   1.279       .  A
C501        C644   1.481       .  S
C503        O505   1.270       .  A
C503        O509   1.272       .  A
C507        C529   1.449       .  S
In510       O512   2.206       .  S
In510       O513   2.205       .  S
In510       O521   2.189       .  S
In510       O515   2.238       .  S
In510       O517   2.276       .  S
In510       O518   2.180       .  S
In510       O519   2.148       .  S
In510       O522   2.211       .  S
C511        O517   1.278       .  A
C511        O519   1.264       .  A
O512        C520   1.271       .  A
O513        C520   1.269       .  A
C514        O521   1.267       .  A
C514        O515   1.278       .  A
C514        C759   1.479       .  S
C516        O518   1.270       .  A
C516        O522   1.270       .  A
C516        C546   1.447       .  S
In523       O534   2.225       .  S
In523       O528   2.348       .  S
In523       O530   2.356       .  S
In523       O531   2.182       .  S
In523       O532   2.252       .  S
In523       O535   2.246       .  S
In523      O2397   2.240   1_455  S
In523      O2398   2.204   1_455  S
C524        O530   1.266       .  A
C524        O532   1.256       .  A
C524        C537   1.504       .  S
O525      In2395   2.259       .  S
O525        C533   1.267       .  A
O526      In2395   2.169       .  S
O526        C533   1.257       .  A
C527        O534   1.254       .  A
C527        O528   1.279       .  A
C527        C616   1.521       .  S
C529        O531   1.260       .  A
C529        O535   1.266       .  A
C533        C555   1.450       .  S
In536       O538   2.233       .  S
In536       O539   2.189       .  S
In536       O547   2.278       .  S
In536       O541   2.327       .  S
In536       O543   2.363       .  S
In536       O545   2.245       .  S
In536      O2416   2.205   1_455  S
In536      O2420   2.243   1_455  S
C537        O543   1.269       .  A
C537        O545   1.253       .  A
O538        C546   1.268       .  A
O539        C546   1.261       .  A
C540        O547   1.253       .  A
C540        O541   1.273       .  A
C540        C728   1.512       .  S
C542        O544   1.259       .  A
C542        O548   1.267       .  A
C542        C572   1.448       .  S
O544      In2408   2.165       .  S
O548      In2408   2.252       .  S
In549       O560   2.315       .  S
In549       O554   2.282       .  S
In549       O556   2.278       .  S
In549       O557   2.186       .  S
In549       O558   2.331       .  S
In549       O561   2.266       .  S
In549      O1487   2.220   1_545  S
In549      O1488   2.223       .  S
C550        O556   1.254       .  A
C550        O558   1.258       .  A
C550        C563   1.498       .  S
O551      In1485   2.204       .  S
O551        C559   1.263       .  A
O552      In1485   2.202       .  S
O552        C559   1.265       .  A
C553        O560   1.254       .  A
C553        O554   1.260       .  A
C553        C661   1.506       .  S
C555        O557   1.261       .  A
C555        O561   1.265       .  A
C559        C581   1.438       .  S
In562       O564   2.249       .  S
In562       O565   2.163       .  S
In562       O573   2.217       .  S
In562       O567   2.332       .  S
In562       O569   2.260       .  S
In562       O571   2.318       .  S
In562      O1506   2.176       .  S
In562      O1510   2.220   1_545  S
C563        O569   1.258       .  A
C563        O571   1.266       .  A
O564        C572   1.270       .  A
O565        C572   1.263       .  A
C566        O573   1.249       .  A
C566        O567   1.278       .  A
C566        C686   1.512       .  S
C568        O570   1.264       .  A
C568        O574   1.267       .  A
C568        C598   1.435       .  S
O570      In1498   2.159       .  S
O574      In1498   2.216       .  S
In575       O577   2.191       .  S
In575       O578   2.157       .  S
In575       O586   2.208       .  S
In575       O580   2.249       .  S
In575       O582   2.291       .  S
In575       O583   2.167       .  S
In575       O584   2.166       .  S
In575       O587   2.187       .  S
C576        O582   1.280       .  A
C576        O584   1.267       .  A
C576        C589   1.477       .  S
O577        C585   1.275       .  A
O578        C585   1.270       .  A
C579        O586   1.267       .  A
C579        O580   1.280       .  A
C579        C633   1.483       .  S
C581        O583   1.269       .  A
C581        O587   1.273       .  A
In588       O590   2.202       .  S
In588       O591   2.134       .  S
In588       O599   2.224       .  S
In588       O593   2.266       .  S
In588       O595   2.293       .  S
In588       O596   2.138       .  S
In588       O597   2.165       .  S
In588       O600   2.198       .  S
C589        O595   1.282       .  A
C589        O597   1.267       .  A
O590        C598   1.275       .  A
O591        C598   1.268       .  A
C592        O599   1.267       .  A
C592        O593   1.280       .  A
C592        C745   1.494       .  S
C594        O596   1.268       .  A
C594        O600   1.276       .  A
C601        C602   1.420       .  A
C601        C606   1.401       .  A
C601        H608   1.080       .  S
C602        C603   1.419       .  A
C603        C604   1.392       .  A
C603        N610   1.434       .  S
C604        C605   1.407       .  A
C604       H2481   1.084       .  S
C605        C606   1.401       .  A
C606        N607   1.437       .  S
N607        H611   1.046       .  S
N607        H612   1.046       .  S
H609       C2476   1.084       .  S
N610        H613   1.043       .  S
N610       H2486   1.044       .  S
H614       N2482   1.043   1_455  S
C615        C616   1.411       .  A
C615        C620   1.409       .  A
C615        H622   1.084       .  S
C616       C2489   1.411       .  A
C617        C618   1.426       .  A
C617       C2488   1.411       .  A
C617        N624   1.437       .  S
C618        C619   1.428       .  A
C618        H623   1.073       .  S
C619       C2492   1.429       .  A
C620       C2491   1.428       .  A
C620        N621   1.434       .  S
N621        H625   1.043       .  S
N621        H626   1.040   1_455  S
N624        H627   1.041       .  S
N624        H628   1.045       .  S
C629        C630   1.411       .  A
C629        C634   1.411       .  A
C629        H636   1.075       .  S
C630        C631   1.424       .  A
C631        C632   1.404       .  A
C631        N638   1.432       .  S
C632        C633   1.395       .  A
C632        H637   1.084       .  S
C633        C634   1.412       .  A
C634        N635   1.438       .  S
N635        H639   1.044       .  S
N635        H640   1.047       .  S
N638        H641   1.045       .  S
N638        H642   1.044       .  S
C643        C644   1.403       .  A
C643        C648   1.405       .  A
C643        H650   1.084       .  S
C644        C645   1.405       .  A
C645        C646   1.406       .  A
C645        N652   1.437       .  S
C646        C647   1.415       .  A
C646        H651   1.083       .  S
C647        C648   1.420       .  A
C648        N649   1.429       .  S
N649        H653   1.046       .  S
N649        H654   1.046       .  S
N652        H655   1.045       .  S
N652        H656   1.045       .  S
C657        C658   1.417       .  A
C657        C662   1.406       .  A
C657        H664   1.076       .  S
C658        C659   1.426       .  A
C659        C660   1.427       .  A
C659        N666   1.431   1_545  S
C660        C661   1.409       .  A
C660        H665   1.082   1_545  S
C661        C662   1.410       .  A
C662        N663   1.440       .  S
N663        H667   1.045       .  S
N663        H668   1.046       .  S
N666        H669   1.044       .  S
N666        H670   1.046       .  S
C671        C672   1.415       .  A
C671        C676   1.397       .  A
C671        H678   1.075   1_545  S
C672        C673   1.434       .  A
C673        C674   1.403       .  A
C673        N680   1.440       .  S
C674        C675   1.399       .  A
C674        H679   1.085       .  S
C675        C676   1.406       .  A
C676        N677   1.434   1_545  S
N677        H682   1.045       .  S
N677       H1617   1.044       .  S
N680        H683   1.038       .  S
N680        H684   1.047       .  S
H681       N1613   1.045       .  S
C685        C686   1.400       .  A
C685        C690   1.409       .  A
C685        H692   1.081       .  S
C686        C687   1.430       .  A
C687        C688   1.406       .  A
C687        N694   1.433       .  S
C688        C689   1.406       .  A
C688        H693   1.080       .  S
C689        C690   1.433       .  A
C690        N691   1.431   1_545  S
N691        H695   1.039   1_565  S
N691        H696   1.045       .  S
N694        H697   1.037       .  S
N694        H698   1.048       .  S
C699        C700   1.405   1_565  A
C699        C704   1.412       .  A
C699        H706   1.084       .  S
C700        C701   1.401       .  A
C701        C702   1.397       .  A
C701        N708   1.433       .  S
C702        C703   1.418       .  A
C702        H707   1.084       .  S
C703        C704   1.421   1_545  A
C704        N705   1.428       .  S
N705        H710   1.046       .  S
N705       H1645   1.046       .  S
N708        H711   1.047       .  S
N708        H712   1.045       .  S
H709       N1641   1.046       .  S
C713        C714   1.410       .  A
C713        C718   1.394       .  A
C713        H720   1.074       .  S
C714        C715   1.439       .  A
C715        C716   1.395       .  A
C715        N722   1.438       .  S
C716        C717   1.392       .  A
C716        H721   1.085       .  S
C717        C718   1.409       .  A
C718        N719   1.434       .  S
N719        H723   1.046       .  S
N719       H2596   1.043       .  S
N722        H725   1.044       .  S
N722        H726   1.038       .  S
H724       N2591   1.045       .  S
C727        C728   1.413       .  A
C727        C732   1.429       .  A
C727        H734   1.083       .  S
C728       C2601   1.409   1_455  A
C729        C730   1.406       .  A
C729       C2600   1.408       .  A
C729        N736   1.438       .  S
C730        C731   1.418       .  A
C730        H735   1.078       .  S
C731       C2604   1.424       .  A
C732       C2603   1.422       .  A
C732        N733   1.429       .  S
N733        H737   1.045       .  S
N733        H738   1.046       .  S
N736        H739   1.041       .  S
N736        H740   1.044       .  S
C741        C742   1.415       .  A
C741        C746   1.409       .  A
C741        H748   1.080       .  S
C742        C743   1.428       .  A
C743        C744   1.409       .  A
C743        N750   1.432       .  S
C744        C745   1.397       .  A
C744        H749   1.083       .  S
C745        C746   1.416       .  A
C746        N747   1.433       .  S
N747        H751   1.045       .  S
N747        H752   1.046       .  S
N750        H753   1.043       .  S
N750        H754   1.046       .  S
C755        C756   1.415       .  A
C755        C760   1.407       .  A
C755        H762   1.081       .  S
C756        C757   1.415       .  A
C757        C758   1.403       .  A
C757        N764   1.429       .  S
C758        C759   1.404       .  A
C758        H763   1.084       .  S
C759        C760   1.406       .  A
C760        N761   1.437       .  S
N761        H765   1.046       .  S
N761        H766   1.044       .  S
N764        H767   1.046       .  S
N764        H768   1.046       .  S
C769        C770   1.397       .  A
C769        C774   1.404       .  A
C769        H776   1.084       .  S
C770        C771   1.407       .  A
C771        C772   1.401       .  A
C771        N778   1.434       .  S
C772        C773   1.411       .  A
C772        H777   1.076       .  S
C773        C774   1.420       .  A
C774        N775   1.432       .  S
N775        H779   1.045       .  S
N775        H780   1.044       .  S
N778        H781   1.046       .  S
N778        H782   1.046       .  S
C783        C784   1.416       .  A
C783        C788   1.402       .  A
C783        H790   1.082       .  S
C784        C785   1.421       .  A
C785        C786   1.405       .  A
C785        N792   1.428       .  S
C786        C787   1.402       .  A
C786        H791   1.084       .  S
C787        C788   1.400       .  A
C788        N789   1.432       .  S
N789        H793   1.045       .  S
N789        H794   1.045       .  S
N792        H795   1.046       .  S
N792        H796   1.046       .  S
C797        C802   1.401       .  A
C797       C1734   1.391       .  A
C797        H804   1.085       .  S
C798        C799   1.410       .  A
C798       C1733   1.386       .  A
C799        C800   1.410       .  A
C799        N806   1.430       .  S
C800       C1737   1.408       .  A
C800        H805   1.084       .  S
C801        C802   1.438       .  A
C801       C1736   1.411       .  A
C802        N803   1.431       .  S
N803        H807   1.046       .  S
N803        H808   1.046       .  S
N806        H809   1.046       .  S
N806        H810   1.045       .  S
C811        C812   1.416       .  A
C811        C816   1.398       .  A
C811        H818   1.069       .  S
C812       C1749   1.428       .  A
C813        C814   1.413       .  A
C813       C1748   1.428       .  A
C813        N820   1.433       .  S
C814        C815   1.409       .  A
C814        H819   1.084       .  S
C815       C1752   1.400       .  A
C816       C1751   1.402       .  A
C816        N817   1.436       .  S
N817        H821   1.046       .  S
N817        H822   1.045       .  S
N820        H823   1.044       .  S
N820        H824   1.040       .  S
C825        C826   1.396       .  A
C825        C830   1.395       .  A
C825       H2704   1.085   1_455  S
C826        C827   1.402       .  A
C827        C828   1.402       .  A
C827        N834   1.438       .  S
C828        C829   1.418       .  A
C828        H833   1.084       .  S
C829        C830   1.420       .  A
C830       N2703   1.428   1_455  S
N831       C2702   1.428       .  S
N831        H835   1.046       .  S
N831       H2708   1.045       .  S
H832       C2697   1.085       .  S
N834        H837   1.045       .  S
N834        H838   1.046       .  S
H836       N2703   1.045       .  S
C839        C840   1.397       .  A
C839        C844   1.403       .  A
C839        H846   1.084       .  S
C840        C841   1.409       .  A
C841        C842   1.392       .  A
C841       N2720   1.433   1_455  S
C842        C843   1.409       .  A
C842        H847   1.075   1_455  S
C843        C844   1.424       .  A
C844        N845   1.433       .  S
N845        H849   1.045       .  S
N845        H850   1.045       .  S
N848       C2713   1.434       .  S
N848        H851   1.042       .  S
N848        H852   1.045       .  S
C853        C854   1.400       .  A
C853        C858   1.412       .  A
C853        H860   1.084       .  S
C854        C855   1.415       .  A
C855        C856   1.403       .  A
C855        N862   1.433       .  S
C856        C857   1.413       .  A
C856        H861   1.078       .  S
C857        C858   1.426       .  A
C858        N859   1.432       .  S
N859        H863   1.045       .  S
N859        H864   1.045       .  S
N862        H865   1.046       .  S
N862        H866   1.045       .  S
C867        C868   1.400       .  A
C867        C872   1.407       .  A
C867        H874   1.084       .  S
C868        C869   1.401       .  A
C869        C870   1.411       .  A
C869        N876   1.432       .  S
C870        C871   1.422       .  A
C870        H875   1.082       .  S
C871        C872   1.424       .  A
C872        N873   1.429       .  S
N873        H877   1.046       .  S
N873        H878   1.045       .  S
N876        H879   1.046       .  S
N876        H880   1.043       .  S
C881        C882   1.401       .  A
C881        C886   1.419       .  A
C881        H888   1.083       .  S
C882        C883   1.423       .  A
C883       C1820   1.399       .  A
C883       N1826   1.434   1_545  S
C884       C1819   1.401       .  A
C884       C1821   1.410       .  A
C884        H889   1.077       .  S
C885        C886   1.431       .  A
C885       C1820   1.407       .  A
C886        N887   1.438       .  S
N887        H891   1.046       .  S
N887        H892   1.042       .  S
N890       C1819   1.434       .  S
N890        H893   1.044       .  S
N890        H894   1.045       .  S
C895        C896   1.412       .  A
C895        C900   1.399       .  A
C895       H1838   1.075   1_545  S
C896        C897   1.436       .  A
C897        C898   1.418       .  A
C897        N904   1.431       .  S
C898        C899   1.404       .  A
C898        H903   1.083       .  S
C899        C900   1.420       .  A
C900        N901   1.435   1_545  S
N901        H905   1.044   1_565  S
N901        H906   1.046       .  S
H902       C1831   1.077       .  S
N904        H907   1.044       .  S
N904        H908   1.041       .  S
C909        C910   1.390   1_455  A
C909        C914   1.401       .  A
C909        H916   1.084       .  S
C910        C911   1.421       .  A
C911        C912   1.432       .  A
C911       N2790   1.437       .  S
C912        C913   1.416   1_655  A
C912        H917   1.081       .  S
C913        C914   1.430       .  A
C914        N915   1.429       .  S
N915        H919   1.030       .  S
N915        H920   1.047       .  S
N918       C2783   1.436       .  S
N918        H921   1.046       .  S
N918        H922   1.045       .  S
C923       C2796   1.415       .  A
C923       C2800   1.434       .  A
C923        H930   1.083       .  S
C924        C925   1.403   1_655  A
C924       C2795   1.411       .  A
C925        C926   1.404       .  A
C925        N932   1.440       .  S
C926        C927   1.423       .  A
C926        H931   1.079       .  S
C927        C928   1.422   1_455  A
C928       C2795   1.430       .  A
C928       N2801   1.435       .  S
N929       C2800   1.435       .  S
N929        H933   1.045       .  S
N929        H934   1.046       .  S
N932        H935   1.040       .  S
N932        H936   1.046       .  S
In937       O939   2.222       .  S
In937       O940   2.167       .  S
In937      O2820   2.250       .  S
In937      O2814   2.324       .  S
In937       O944   2.370       .  S
In937      O2817   2.166       .  S
In937       O946   2.221       .  S
In937      O2821   2.260       .  S
C938        O944   1.271       .  A
C938        O946   1.253       .  A
C938        C951   1.500       .  S
O939        C947   1.267       .  A
O940        C947   1.259       .  A
C941        O948   1.254       .  A
C941        O942   1.278       .  A
C941       C1860   1.496       .  S
O942      In2809   2.302       .  S
C943        O945   1.260       .  A
C943        O949   1.267       .  A
C943        C986   1.450       .  S
O945      In2809   2.175   1_455  S
C947       C1086   1.435       .  S
O948      In2809   2.242       .  S
O949      In2809   2.254   1_455  S
In950      O2824   2.265       .  S
In950      O2825   2.181       .  S
In950      O2833   2.269       .  S
In950       O955   2.312       .  S
In950       O957   2.368       .  S
In950       O958   2.190       .  S
In950       O959   2.218       .  S
In950       O962   2.240       .  S
C951        O957   1.274       .  A
C951        O959   1.254       .  A
O952      In2822   2.256   1_455  S
O952        C960   1.266       .  A
O953      In2822   2.196   1_455  S
O953        C960   1.261       .  A
C954        O961   1.256       .  A
C954       O2827   1.274       .  A
C954       C1846   1.498       .  S
O955       C2826   1.273       .  A
C956        O958   1.262       .  A
C956        O962   1.268       .  A
C956       C1077   1.452       .  S
C960        C969   1.455       .  S
O961      In2822   2.255       .  S
In963       O965   2.234       .  S
In963       O966   2.206       .  S
In963       O974   2.264       .  S
In963       O968   2.308       .  S
In963       O970   2.299       .  S
In963       O971   2.217       .  S
In963       O972   2.311       .  S
C964        O970   1.255       .  A
C964        O972   1.256       .  A
C964        C977   1.494       .  S
O965        C973   1.263       .  A
O966        C973   1.263       .  A
C967        O974   1.258       .  A
C967        O968   1.257       .  A
C967       C1835   1.506       .  S
C969        O975   1.269       .  A
C973       C1008   1.448       .  S
In976       O979   2.164       .  S
In976       O987   2.208       .  S
In976       O981   2.309       .  S
In976       O983   2.284       .  S
In976       O984   2.181       .  S
In976       O985   2.288       .  S
In976       O988   2.213       .  S
C977        O983   1.261       .  A
C977        O985   1.261       .  A
O978        C986   1.270       .  A
C980        O987   1.249       .  A
C980        O981   1.275       .  A
C980       C1818   1.499       .  S
C982        O984   1.261       .  A
C982        O988   1.264       .  A
C982        C999   1.436       .  S
In989       O991   2.190       .  S
In989       O992   2.155       .  S
In989      O1000   2.235       .  S
In989       O994   2.277       .  S
In989       O996   2.301       .  S
In989       O997   2.177       .  S
In989       O998   2.184       .  S
In989      O1001   2.184       .  S
C990        O996   1.281       .  A
C990        O998   1.266       .  A
C990       C1003   1.484       .  S
O991        C999   1.272       .  A
O992        C999   1.270       .  A
C993       O1000   1.269       .  A
C993        O994   1.280       .  A
C993       C1804   1.507       .  S
C995        O997   1.269       .  A
C995       O1001   1.273       .  A
C995       C1038   1.440       .  S
In1002     O1004   2.208       .  S
In1002     O1005   2.169       .  S
In1002     O1013   2.244       .  S
In1002     O1007   2.286       .  S
In1002     O1009   2.294       .  S
In1002     O1010   2.169       .  S
In1002     O1011   2.183       .  S
In1002     O1014   2.211       .  S
C1003      O1009   1.283       .  A
C1003      O1011   1.270       .  A
O1004      C1012   1.276       .  A
O1005      C1012   1.271       .  A
C1006      O1013   1.269       .  A
C1006      O1007   1.280       .  A
C1006      C1790   1.509       .  S
C1008      O1010   1.270       .  A
C1008      O1014   1.275       .  A
C1012      C1021   1.451       .  S
In1015     O2889   2.213   1_455  S
In1015     O2890   2.209       .  S
In1015     O1026   2.171       .  S
In1015     O1020   2.261       .  S
In1015     O1022   2.256       .  S
In1015     O1023   2.206       .  S
In1015     O1024   2.226       .  S
In1015     O1027   2.231       .  S
C1016      O1022   1.258       .  A
C1016      O1024   1.256       .  A
C1016      C1029   1.460       .  S
O1017     In2887   2.226       .  S
O1017      C1025   1.266       .  A
O1018     In2887   2.215       .  S
O1018      C1025   1.268       .  A
C1019      O1026   1.249       .  A
C1019      O1020   1.270       .  A
C1019      C1776   1.462       .  S
C1021      O1023   1.264       .  A
C1021      O1027   1.263       .  A
C1025      C1060   1.457       .  S
In1028     O1030   2.199       .  S
In1028     O1031   2.215       .  S
In1028     O1039   2.189       .  S
In1028     O1033   2.262       .  S
In1028     O1035   2.260       .  S
In1028     O2908   2.212   1_455  S
In1028     O1037   2.238       .  S
In1028     O2912   2.237   1_455  S
C1029      O1035   1.258       .  A
C1029      O1037   1.252       .  A
O1030      C1038   1.259       .  A
O1031      C1038   1.264       .  A
C1032      O1039   1.251       .  A
C1032      O1033   1.268       .  A
C1032      C1762   1.461       .  S
C1034      O1036   1.265       .  A
C1034      O1040   1.268       .  A
C1034      C1051   1.464       .  S
O1036     In2900   2.225       .  S
O1040     In2900   2.238       .  S
In1041     O1043   2.239       .  S
In1041     O1044   2.231       .  S
In1041     O1052   2.223       .  S
In1041     O1046   2.269       .  S
In1041     O1048   2.246       .  S
In1041     O1050   2.282       .  S
C1042      O1048   1.255       .  A
C1042      O1050   1.260       .  A
C1042      C1055   1.471       .  S
O1043      C1051   1.265       .  A
O1044      C1051   1.265       .  A
C1045      O1052   1.254       .  A
C1045      O1046   1.270       .  A
C1045      C1751   1.486       .  S
C1047      O1049   1.264       .  A
C1047      O1053   1.263       .  A
C1047      C1090   1.449   1_545  S
In1054     O1065   2.239       .  S
In1054     O1059   2.272       .  S
In1054     O1061   2.242       .  S
In1054     O1062   2.216       .  S
In1054     O1063   2.285       .  S
In1054     O1066   2.236       .  S
C1055      O1061   1.255       .  A
C1055      O1063   1.261       .  A
O1056      C1064   1.262       .  A
O1057      C1064   1.265       .  A
C1058      O1065   1.254       .  A
C1058      O1059   1.267       .  A
C1058      C1734   1.485       .  S
C1060      O1062   1.263       .  A
C1060      O1066   1.267       .  A
C1064      C1073   1.455   1_545  S
In1067     O1069   2.242       .  S
In1067     O1070   2.193       .  S
In1067     O1078   2.168       .  S
In1067     O1072   2.246       .  S
In1067     O1074   2.291       .  S
In1067     O1075   2.226       .  S
In1067     O1076   2.139       .  S
In1067     O1079   2.220       .  S
C1068      O1074   1.272       .  A
C1068      O1076   1.257       .  A
C1068      C1081   1.456       .  S
O1069      C1077   1.267       .  A
O1070      C1077   1.263       .  A
C1071      O1078   1.258       .  A
C1071      O1072   1.272       .  A
C1071      C1723   1.455       .  S
C1073      O1075   1.264       .  A
C1073      O1079   1.264       .  A
In1080     O1082   2.218       .  S
In1080     O1083   2.185       .  S
In1080     O1091   2.183       .  S
In1080     O1085   2.249       .  S
In1080     O1087   2.274       .  S
In1080     O1088   2.158       .  S
In1080     O1089   2.127       .  S
In1080     O1092   2.203       .  S
C1081      O1087   1.279       .  A
C1081      O1089   1.262       .  A
O1082      C1090   1.271       .  A
O1083      C1090   1.265       .  A
C1084      O1091   1.263       .  A
C1084      O1085   1.278       .  A
C1084      C1706   1.471       .  S
C1086      O1088   1.268       .  A
C1086      O1092   1.269       .  A
C1093      C1094   1.567       .  S
C1093      C1099   1.490       .  S
C1093      C1097   1.503       .  S
C1093      C1692   1.534       .  S
C1094      H1101   1.082       .  S
C1094      C1095   1.370       .  D
C1095      C1096   1.576   1_556  S
C1095      C1119   1.526   1_556  S
C1096      C1100   1.612   1_554  S
C1096      C1098   1.578   1_554  S
C1096      H1102   1.110       .  S
C1097      H1103   1.084       .  S
C1097      C1098   1.351       .  D
C1098      C1110   1.527       .  S
C1099      H1104   1.073       .  S
C1099      C1100   1.379       .  D
C1100      C1196   1.570       .  S
C1105      C1106   1.555       .  S
C1105      C1111   1.506   1_556  S
C1105      C1109   1.522       .  S
C1105      C1678   1.567       .  S
C1106      H1113   1.084       .  S
C1106      C1107   1.389   1_556  D
C1107      C1108   1.596       .  S
C1107      C1179   1.576       .  S
C1108      C1112   1.618       .  S
C1108      C1110   1.528   1_554  S
C1108      H1114   1.110       .  S
C1109      H1115   1.083       .  S
C1109      C1110   1.378       .  D
C1111      H1116   1.086       .  S
C1111      C1112   1.367       .  D
C1112      C1136   1.515       .  S
C1117      C1118   1.511       .  S
C1117      C1123   1.550       .  S
C1117      C1121   1.523       .  S
C1117      C1793   1.564       .  S
C1118      H1125   1.085       .  S
C1118      C1119   1.371       .  D
C1119      C1120   1.621       .  S
C1120      C1124   1.600       .  S
C1120      C1122   1.538       .  S
C1120      H1126   1.110       .  S
C1121      H1127   1.082       .  S
C1121      C1122   1.372       .  D
C1122      C1134   1.533       .  S
C1123      H1128   1.084       .  S
C1123      C1124   1.385       .  D
C1124      C1148   1.570       .  S
C1129      C1130   1.498       .  S
C1129      C1135   1.554       .  S
C1129      C1133   1.512       .  S
C1129      C1720   1.533       .  S
C1130      H1137   1.077       .  S
C1130      C1131   1.389       .  D
C1131      C1132   1.610       .  S
C1131      C1215   1.576       .  S
C1132      C1136   1.583       .  S
C1132      C1134   1.571       .  S
C1132      H1138   1.110       .  S
C1133      H1139   1.085       .  S
C1133      C1134   1.356       .  D
C1135      H1140   1.083       .  S
C1135      C1136   1.364       .  D
C1141      C1142   1.531       .  S
C1141      C1147   1.484       .  S
C1141      C1145   1.594       .  S
C1141      C1779   1.534       .  S
C1142      H1149   1.085       .  S
C1142      C1143   1.351       .  D
C1143      C1144   1.605       .  S
C1143      C1158   1.573       .  S
C1144      C1148   1.634       .  S
C1144      C1146   1.543       .  S
C1144      H1150   1.106       .  S
C1145      H1151   1.081       .  S
C1145      C1146   1.366       .  D
C1146      C3042   1.528       .  S
C1147      H1152   1.083       .  S
C1147      C1148   1.377       .  D
C1153      C1154   1.516       .  S
C1153      C1159   1.516       .  S
C1153      C1157   1.516       .  S
C1153      C1849   1.569       .  S
C1154      H3033   1.082   1_455  S
C1154      C1155   1.380       .  D
C1155      C1156   1.613       .  S
C1155      C3054   1.529   1_455  S
C1156      C1160   1.572       .  S
C1156      C1158   1.581       .  S
C1156      H1162   1.110       .  S
C1157      H1163   1.079       .  S
C1157      C1158   1.393       .  D
C1159      H1164   1.080       .  S
C1159      C1160   1.374       .  D
C1160      C1227   1.549       .  S
H1161      C3026   1.083       .  S
C1165      C1166   1.518       .  S
C1165      C1171   1.532       .  S
C1165      C3041   1.522       .  S
C1165      C1667   1.572       .  S
C1166      H1173   1.080       .  S
C1166      C1167   1.393   1_556  D
C1167      C1168   1.591       .  S
C1167      C1184   1.579       .  S
C1168      C1172   1.579   1_554  S
C1168      C1170   1.624       .  S
C1168      H1174   1.109       .  S
C1169      C3037   1.516   1_455  S
C1169      H1175   1.084       .  S
C1169      C3042   1.379   1_556  D
C1170      C3041   1.377   1_554  D
C1170      C3018   1.543       .  S
C1171      H1176   1.083       .  S
C1171      C1172   1.373       .  D
C1172      C1208   1.567       .  S
C1177      C1178   1.486       .  S
C1177      C1183   1.531       .  S
C1177      C1181   1.596       .  S
C1177      C1650   1.541       .  S
C1178      H1185   1.081       .  S
C1178      C1179   1.375   1_556  D
C1179      C1180   1.638       .  S
C1180      C1184   1.605       .  S
C1180      C1182   1.542       .  S
C1180      H1186   1.106       .  S
C1181      H3059   1.080       .  S
C1181      C1182   1.366   1_556  D
C1182      C3027   1.526       .  S
C1183      H1188   1.089       .  S
C1183      C1184   1.354   1_556  D
H1187      C3053   1.080   1_455  S
C1189      C1190   1.535       .  S
C1189      C1195   1.523       .  S
C1189      C1193   1.513       .  S
C1189      C1639   1.554       .  S
C1190      H1197   1.079       .  S
C1190      C1191   1.382       .  D
C1191      C1192   1.553   1_556  S
C1191      C1206   1.559       .  S
C1192      C1196   1.612   1_554  S
C1192      C1194   1.586       .  S
C1192      H1198   1.109       .  S
C1193      H1199   1.079       .  S
C1193      C1194   1.368   1_556  D
C1194      C1232   1.486       .  S
C1195      H1200   1.086       .  S
C1195      C1196   1.376       .  D
C1201      C1202   1.534       .  S
C1201      C1207   1.525       .  S
C1201      C1205   1.526       .  S
C1201      C1625   1.564       .  S
C1202      H1209   1.080       .  S
C1202      C1203   1.379   1_556  D
C1203      C1204   1.602       .  S
C1203      C1218   1.549       .  S
C1204      C1208   1.618   1_554  S
C1204      C1206   1.582   1_554  S
C1204      H1210   1.109       .  S
C1205      H1211   1.082       .  S
C1205      C1206   1.359       .  D
C1207      H1212   1.084       .  S
C1207      C1208   1.382       .  D
C1213      C1214   1.513   1_545  S
C1213      C1219   1.544   1_545  S
C1213      C1737   1.554       .  S
C1214      H1221   1.083   1_565  S
C1214      C1215   1.386       .  D
C1215      C1216   1.638       .  S
C1216      C1220   1.578       .  S
C1216      H1222   1.106       .  S
C1217      H1223   1.084       .  S
C1217      C1218   1.381       .  D
C1219      H1224   1.086       .  S
C1219      C1220   1.345       .  D
C1220      C1230   1.563       .  S
C1225      C1231   1.523       .  S
C1225      C1832   1.566       .  S
C1226      H1233   1.083       .  S
C1226      C1227   1.376       .  D
C1227      C1228   1.592       .  S
C1228      C1230   1.554       .  S
C1228      H1234   1.108       .  S
C1229      H1235   1.067       .  S
C1229      C1230   1.372       .  D
C1231      H1236   1.083       .  S
C1231      C1232   1.377       .  D
C1237      C1238   1.494       .  S
C1237      C1243   1.526       .  S
C1237      C1241   1.591       .  S
C1237      C1608   1.561       .  S
C1238      H1245   1.076       .  S
C1238      C1239   1.391       .  D
C1239      C1240   1.622       .  S
C1239      C1292   1.572       .  S
C1240      C1244   1.590       .  S
C1240      C1242   1.543       .  S
C1240      H1246   1.105       .  S
C1241      H1247   1.079       .  S
C1241      C1242   1.366       .  D
C1242      C1275   1.519       .  S
C1243      H1248   1.088       .  S
C1243      C1244   1.347       .  D
C1244      C1254   1.556       .  S
C1249      C1250   1.521       .  S
C1249      C1255   1.510       .  S
C1249      C1253   1.506       .  S
C1249      C1594   1.557       .  S
C1250      H1257   1.084       .  S
C1250      C1251   1.373       .  D
C1251      C1252   1.591       .  S
C1251      C1364   1.548       .  S
C1252      C1256   1.609       .  S
C1252      C1254   1.552       .  S
C1252      H1258   1.109       .  S
C1253      H1259   1.084       .  S
C1253      C1254   1.382       .  D
C1255      H1260   1.081       .  S
C1255      C1256   1.381       .  D
C1256      C1266   1.516       .  S
C1261      C1262   1.524   1_545  S
C1261      C1267   1.496   1_545  S
C1261      C1748   1.562       .  S
C1262      H1269   1.086       .  S
C1262      C1263   1.349       .  D
C1263      C1264   1.595       .  S
C1263      C1278   1.576       .  S
C1264      C1268   1.626       .  S
C1264      H1270   1.106       .  S
C1265      H1271   1.083       .  S
C1265      C1266   1.366       .  D
C1267      H1272   1.083       .  S
C1267      C1268   1.394       .  D
C1268      C1328   1.573       .  S
C1273      C1274   1.507       .  S
C1273      C1821   1.556       .  S
C1274      H1281   1.081       .  S
C1274      C1275   1.375       .  D
C1276      C1280   1.618       .  S
C1276      C1278   1.571       .  S
C1276      H1282   1.109       .  S
C1277      H1283   1.084       .  S
C1277      C1278   1.378       .  D
C1279      H1284   1.084       .  S
C1279      C1280   1.377       .  D
C1280      C1347   1.566       .  S
C1285      C1286   1.546       .  S
C1285      C1291   1.546       .  S
C1285      C1289   1.511       .  S
C1285      C1583   1.541       .  S
C1286      H1293   1.081       .  S
C1286      C1287   1.367       .  D
C1287      C1288   1.535       .  S
C1287      C1302   1.510       .  S
C1288      C1292   1.594       .  S
C1288      C1290   1.617       .  S
C1288      H1294   1.108       .  S
C1289      H1295   1.087       .  S
C1289      C1290   1.361       .  D
C1290      C1316   1.515       .  S
C1291      H1296   1.077       .  S
C1291      C1292   1.372       .  D
C1297      C1298   1.533       .  S
C1297      C1303   1.553       .  S
C1297      C1301   1.541       .  S
C1297      C1566   1.566       .  S
C1298      H1305   1.086       .  S
C1298      C1299   1.366       .  D
C1299      C1300   1.595       .  S
C1299      C1323   1.507       .  S
C1300      C1304   1.587       .  S
C1300      C1302   1.536       .  S
C1300      H1306   1.109       .  S
C1301      H1307   1.082       .  S
C1301      C1302   1.366       .  D
C1303      H1308   1.077       .  S
C1303      C1304   1.389       .  D
C1304      C1376   1.576       .  S
C1309      C1310   1.552       .  S
C1309      C1315   1.530       .  S
C1309      C1313   1.546       .  S
C1309      C1807   1.569       .  S
C1310      H1317   1.076       .  S
C1310      C1311   1.385       .  D
C1311      C1312   1.601       .  S
C1311      C1340   1.585       .  S
C1312      C1316   1.603       .  S
C1312      C1314   1.541       .  S
C1312      H1318   1.109       .  S
C1313      H1319   1.083       .  S
C1313      C1314   1.369       .  D
C1314      C1326   1.523       .  S
C1315      H1320   1.086       .  S
C1315      C1316   1.366       .  D
C1321      C1322   1.501       .  S
C1321      C1327   1.539       .  S
C1321      C1325   1.536       .  S
C1321      C1709   1.536       .  S
C1322      H1329   1.086       .  S
C1322      C1323   1.358       .  D
C1323      C1324   1.615       .  S
C1324      C1328   1.598       .  S
C1324      C1326   1.547       .  S
C1324      H1330   1.109       .  S
C1325      H1331   1.080       .  S
C1325      C1326   1.367       .  D
C1327      H1332   1.081       .  S
C1327      C1328   1.375       .  D
C1333      C1334   1.597       .  S
C1333      C1339   1.486       .  S
C1333      C1337   1.530       .  S
C1333      C1765   1.542       .  S
C1334      H1341   1.076   1_455  S
C1334      C1335   1.368       .  D
C1335      C1336   1.547       .  S
C1335      C3231   1.537       .  S
C1336      C1340   1.639       .  S
C1336      C1338   1.605       .  S
C1336      H1342   1.105       .  S
C1337      H1343   1.085       .  S
C1337      C1338   1.357       .  D
C1338      C1350   1.579       .  S
C1339      H1344   1.086       .  S
C1339      C1340   1.373       .  D
C1345      C1346   1.530       .  S
C1345      C1351   1.517       .  S
C1345      C1349   1.518       .  S
C1345      C1863   1.574       .  S
C1346      H1353   1.079       .  S
C1346      C1347   1.378       .  D
C1347      C1348   1.569       .  S
C1348      C1352   1.632       .  S
C1348      C1350   1.590       .  S
C1348      H1354   1.109       .  S
C1349      H1355   1.078       .  S
C1349      C1350   1.386       .  D
C1351      H3228   1.082   1_455  S
C1351      C1352   1.383       .  D
C1352      C3246   1.546   1_455  S
H1356      C3223   1.083       .  S
C1357      C3230   1.515       .  S
C1357      C1363   1.526       .  S
C1357      C1361   1.540       .  S
C1357      C1555   1.579       .  S
C1358      C3229   1.513   1_455  S
C1358      H1365   1.083       .  S
C1358      C3231   1.377       .  D
C1359      C1360   1.626       .  S
C1359      C3230   1.378       .  D
C1359      C3207   1.542       .  S
C1360      C1364   1.567       .  S
C1360      C1362   1.585       .  S
C1360      H1366   1.110       .  S
C1361      H1367   1.059       .  S
C1361      C1362   1.390       .  D
C1362      C1371   1.584       .  S
C1363      H1368   1.084       .  S
C1363      C1364   1.374       .  D
C1369      C1370   1.535       .  S
C1369      C1375   1.481       .  S
C1369      C1373   1.601       .  S
C1369      C1538   1.548       .  S
C1370      H1377   1.072       .  S
C1370      C1371   1.357       .  D
C1371      C1372   1.612       .  S
C1372      C1376   1.638       .  S
C1372      C1374   1.539       .  S
C1372      H1378   1.105       .  S
C1373      H3251   1.083       .  S
C1373      C1374   1.379       .  D
C1374      C3224   1.547       .  S
C1375      H1380   1.088       .  S
C1375      C1376   1.363       .  D
H1379      C3245   1.084   1_455  S
In1381     O1383   2.226   1_655  S
In1381     O1384   2.211   1_655  S
In1381     O1392   2.180       .  S
In1381     O3258   2.272       .  S
In1381     O1388   2.248       .  S
In1381     O3261   2.199       .  S
In1381     O1390   2.248       .  S
In1381     O3265   2.217       .  S
C1382      O1388   1.257       .  A
C1382      O1390   1.256       .  A
C1382      C1395   1.463       .  S
O1383      C1391   1.265       .  A
O1384      C1391   1.263       .  A
C1385      O3264   1.250       .  A
C1385      O1386   1.271       .  A
C1385      C1541   1.479       .  S
O1386     In3253   2.298       .  S
C1387      O1389   1.260       .  A
C1387      O1393   1.263       .  A
C1387      C1521   1.442       .  S
O1389     In3253   2.196       .  S
C1391      C1413   1.452       .  S
O1392      C3257   1.251       .  A
O1393     In3253   2.225       .  S
In1394     O1396   2.222       .  S
In1394     O1397   2.197       .  S
In1394     O1405   2.189       .  S
In1394     O1399   2.242       .  S
In1394     O1401   2.236       .  S
In1394     O3274   2.209       .  S
In1394     O3275   2.237       .  S
In1394     O3278   2.214       .  S
C1395      O3273   1.257       .  A
C1395      O1403   1.255       .  A
O1396      C1404   1.261       .  A
O1397      C1404   1.262       .  A
C1398      O1405   1.250       .  A
C1398      O1399   1.266       .  A
C1398      C1653   1.461       .  S
C1400      O1402   1.265       .  A
C1400      O1406   1.268       .  A
C1400      C1430   1.451       .  S
O1401      C3267   1.257       .  A
O1402     In3266   2.202   1_455  S
O1403     In3266   2.245       .  S
C1404      C1530   1.443       .  S
O1406     In3266   2.224   1_455  S
In1407     O1409   2.242       .  S
In1407     O1410   2.204       .  S
In1407     O1418   2.234       .  S
In1407     O1412   2.271       .  S
In1407     O1414   2.286       .  S
In1407     O1416   2.238       .  S
C1408      O1414   1.261       .  A
C1408      O1416   1.255       .  A
C1408      C1421   1.473       .  S
O1409      C1417   1.260       .  A
O1410      C1417   1.261       .  A
C1411      O1418   1.253       .  A
C1411      O1412   1.264       .  A
C1411      C1611   1.482       .  S
C1413      O1415   1.265       .  A
C1413      O1419   1.267       .  A
C1417      C1439   1.449       .  S
In1420     O1431   2.189       .  S
In1420     O1425   2.308       .  S
In1420     O1427   2.277       .  S
In1420     O1428   2.220       .  S
In1420     O1429   2.248       .  S
In1420     O1432   2.227       .  S
C1421      O1427   1.258       .  A
C1421      O1429   1.258       .  A
O1422      C1430   1.267       .  A
O1423      C1430   1.264       .  A
C1424      O1431   1.252       .  A
C1424      O1425   1.274       .  A
C1424      C1636   1.483       .  S
C1426      O1428   1.266       .  A
C1426      O1432   1.264       .  A
C1426      C1456   1.456       .  S
In1433     O1435   2.220       .  S
In1433     O1436   2.139       .  S
In1433     O1444   2.190       .  S
In1433     O1438   2.246       .  S
In1433     O1440   2.277       .  S
In1433     O1441   2.169       .  S
In1433     O1442   2.135       .  S
In1433     O1445   2.227       .  S
C1434      O1440   1.280       .  A
C1434      O1442   1.264       .  A
C1434      C1447   1.461       .  S
O1435      C1443   1.272       .  A
O1436      C1443   1.268       .  A
C1437      O1444   1.264       .  A
C1437      O1438   1.280       .  A
C1437      C1580   1.475       .  S
C1439      O1441   1.265       .  A
C1439      O1445   1.274       .  A
C1443      C1465   1.438       .  S
In1446     O1448   2.237       .  S
In1446     O1449   2.218       .  S
In1446     O1457   2.167       .  S
In1446     O1451   2.247       .  S
In1446     O1453   2.292       .  S
In1446     O1454   2.184       .  S
In1446     O1455   2.148       .  S
In1446     O1458   2.232       .  S
C1447      O1453   1.273       .  A
C1447      O1455   1.258       .  A
O1448      C1456   1.265       .  A
O1449      C1456   1.262       .  A
C1450      O1457   1.259       .  A
C1450      O1451   1.274       .  A
C1450      C1695   1.455       .  S
C1452      O1454   1.264       .  A
C1452      O1458   1.266       .  A
C1452      C1482   1.447       .  S
In1459     O3333   2.253   1_455  S
In1459     O3334   2.173   1_455  S
In1459     O1470   2.244       .  S
In1459     O1464   2.334       .  S
In1459     O1466   2.365       .  S
In1459     O1467   2.144       .  S
In1459     O1468   2.198       .  S
In1459     O1471   2.239       .  S
C1460      O1466   1.280       .  A
C1460      O1468   1.257       .  A
C1460      C1473   1.503       .  S
O1461     In3331   2.229       .  S
O1461      C1469   1.268       .  A
O1462     In3331   2.186       .  S
O1462      C1469   1.263       .  A
C1463      O1470   1.260       .  A
C1463      O1464   1.281       .  A
C1463      C1552   1.526       .  S
C1465      O1467   1.259       .  A
C1465      O1471   1.270       .  A
C1469      C1491   1.447       .  S
In1472     O1474   2.234       .  S
In1472     O1475   2.171       .  S
In1472     O1483   2.254       .  S
In1472     O1477   2.314       .  S
In1472     O1479   2.366       .  S
In1472     O3352   2.193   1_455  S
In1472     O1481   2.196       .  S
In1472     O3356   2.248   1_455  S
C1473      O1479   1.280       .  A
C1473      O1481   1.257       .  A
O1474      C1482   1.271       .  A
O1475      C1482   1.262       .  A
C1476      O1483   1.257       .  A
C1476      O1477   1.277       .  A
C1476      C1664   1.504       .  S
C1478      O1480   1.263       .  A
C1478      O1484   1.265       .  A
C1478      C1508   1.443       .  S
O1480     In3344   2.193       .  S
O1484     In3344   2.223       .  S
In1485     O1496   2.300       .  S
In1485     O1490   2.274       .  S
In1485     O1492   2.291       .  S
In1485     O1493   2.200       .  S
In1485     O1494   2.305       .  S
In1485     O1497   2.232       .  S
C1486      O1492   1.256       .  A
C1486      O1494   1.256       .  A
C1486      C1499   1.498       .  S
O1487      C1495   1.263       .  A
O1488      C1495   1.264   1_545  A
C1489      O1496   1.255       .  A
C1489      O1490   1.261       .  A
C1489      C1597   1.502       .  S
C1491      O1493   1.264       .  A
C1491      O1497   1.264       .  A
C1495      C1517   1.448       .  S
In1498     O1500   2.216       .  S
In1498     O1501   2.184       .  S
In1498     O1509   2.217       .  S
In1498     O1503   2.333       .  S
In1498     O1505   2.289       .  S
In1498     O1507   2.300       .  S
C1499      O1505   1.261       .  A
C1499      O1507   1.262       .  A
O1500      C1508   1.268       .  A
O1501      C1508   1.264       .  A
C1502      O1509   1.252       .  A
C1502      O1503   1.281       .  A
C1502      C1622   1.510       .  S
C1504      O1506   1.262       .  A
C1504      O1510   1.265   1_545  A
C1504      C1534   1.438   1_545  S
In1511     O1513   2.193       .  S
In1511     O1514   2.163       .  S
In1511     O1522   2.251       .  S
In1511     O1516   2.288       .  S
In1511     O1518   2.303       .  S
In1511     O1519   2.188       .  S
In1511     O1520   2.209       .  S
In1511     O1523   2.193       .  S
C1512      O1518   1.281       .  A
C1512      O1520   1.269       .  A
C1512      C1525   1.494       .  S
O1513      C1521   1.274       .  A
O1514      C1521   1.272       .  A
C1515      O1522   1.270       .  A
C1515      O1516   1.280       .  A
C1515      C1569   1.515       .  S
C1517      O1519   1.271       .  A
C1517      O1523   1.272       .  A
In1524     O1526   2.194       .  S
In1524     O1527   2.152       .  S
In1524     O1535   2.252       .  S
In1524     O1529   2.299       .  S
In1524     O1531   2.301       .  S
In1524     O1532   2.163       .  S
In1524     O1533   2.208       .  S
In1524     O1536   2.199       .  S
C1525      O1531   1.283       .  A
C1525      O1533   1.270       .  A
O1526      C1534   1.274       .  A
O1527      C1534   1.271       .  A
C1528      O1535   1.269       .  A
C1528      O1529   1.280       .  A
C1528      C1681   1.515       .  S
C1530      O1532   1.270       .  A
C1530      O1536   1.275       .  A
C1537      C1538   1.427       .  A
C1537      C1542   1.407       .  A
C1537      H1544   1.073       .  S
C1538      C1539   1.424       .  A
C1539      C1540   1.387       .  A
C1539      N1546   1.433       .  S
C1540      C1541   1.402       .  A
C1540      H3417   1.084       .  S
C1541      C1542   1.399       .  A
C1542      N1543   1.432       .  S
N1543      H1547   1.046       .  S
N1543      H1548   1.045       .  S
H1545      C3412   1.084       .  S
N1546      H1549   1.037       .  S
N1546      H3422   1.043       .  S
H1550      N3418   1.043   1_455  S
C1551      C1552   1.412       .  A
C1551      C1556   1.414       .  A
C1551      H1558   1.083       .  S
C1552      C3425   1.412       .  A
C1553      C3424   1.409       .  A
C1553      C1554   1.424       .  A
C1553      N1560   1.437       .  S
C1554      C1555   1.428       .  A
C1554      H1559   1.073       .  S
C1555      C3428   1.426       .  A
C1556      C3427   1.428       .  A
C1556      N1557   1.434       .  S
N1557      H1561   1.044       .  S
N1557      H1562   1.041   1_455  S
N1560      H1563   1.041       .  S
N1560      H1564   1.045       .  S
C1565      C1566   1.413       .  A
C1565      C1570   1.421       .  A
C1565      H1572   1.075       .  S
C1566      C1567   1.424       .  A
C1567      C1568   1.415       .  A
C1567      N1574   1.432       .  S
C1568      C1569   1.404       .  A
C1568      H1573   1.084       .  S
C1569      C1570   1.421       .  A
C1570      N1571   1.438       .  S
N1571      H1575   1.045       .  S
N1571      H1576   1.046       .  S
N1574      H1577   1.045       .  S
N1574      H1578   1.045       .  S
C1579      C1580   1.398       .  A
C1579      C1584   1.401       .  A
C1579      H1586   1.084       .  S
C1580      C1581   1.404       .  A
C1581      C1582   1.408       .  A
C1581      N1588   1.437       .  S
C1582      C1583   1.417       .  A
C1582      H1587   1.083       .  S
C1583      C1584   1.421       .  A
C1584      N1585   1.430       .  S
N1585      H1589   1.045       .  S
N1585      H1590   1.046       .  S
N1588      H1591   1.046       .  S
N1588      H1592   1.045       .  S
C1593      C1594   1.418       .  A
C1593      C1598   1.407       .  A
C1593      H1600   1.078       .  S
C1594      C1595   1.423       .  A
C1595      C1596   1.421       .  A
C1595      N1602   1.430       .  S
C1596      C1597   1.407       .  A
C1596      H1601   1.080       .  S
C1597      C1598   1.411       .  A
C1598      N1599   1.440       .  S
N1599      H1603   1.045       .  S
N1599      H1604   1.046       .  S
N1602      H1605   1.045       .  S
N1602      H1606   1.046       .  S
C1607      C1608   1.422       .  A
C1607      C1612   1.401       .  A
C1607      H1614   1.073       .  S
C1608      C1609   1.434       .  A
C1609      C1610   1.406       .  A
C1609      N1616   1.436       .  S
C1610      C1611   1.401       .  A
C1610      H1615   1.084       .  S
C1611      C1612   1.405       .  A
C1612      N1613   1.434       .  S
N1613      H1618   1.044       .  S
N1616      H1619   1.043       .  S
N1616      H1620   1.040       .  S
C1621      C1622   1.400       .  A
C1621      C1626   1.413       .  A
C1621      H1628   1.084       .  S
C1622      C1623   1.425       .  A
C1623      C1624   1.409       .  A
C1623      N1630   1.434       .  S
C1624      C1625   1.413       .  A
C1624      H1629   1.078       .  S
C1625      C1626   1.432       .  A
C1626      N1627   1.428       .  S
N1627      H1631   1.043       .  S
N1627      H1632   1.044       .  S
N1630      H1633   1.045       .  S
N1630      H1634   1.045       .  S
C1635      C1636   1.400       .  A
C1635      C1640   1.419       .  A
C1635      H1642   1.083       .  S
C1636      C1637   1.409       .  A
C1637      C1638   1.400       .  A
C1637      N1644   1.441       .  S
C1638      C1639   1.411       .  A
C1638      H1643   1.071       .  S
C1639      C1640   1.427       .  A
C1640      N1641   1.435       .  S
N1641      H1646   1.045       .  S
N1644      H1647   1.046       .  S
N1644      H1648   1.045       .  S
C1649      C1650   1.415       .  A
C1649      C1654   1.391       .  A
C1649      H1656   1.073       .  S
C1650      C1651   1.433       .  A
C1651      C1652   1.397       .  A
C1651      N1658   1.432       .  S
C1652      C1653   1.395       .  A
C1652      H1657   1.085       .  S
C1653      C1654   1.404       .  A
C1654      N1655   1.434       .  S
N1655      H1659   1.043       .  S
N1655      H3532   1.046       .  S
N1658      H1661   1.041       .  S
N1658      H1662   1.042       .  S
H1660      N3527   1.044       .  S
C1663      C1664   1.412       .  A
C1663      C1668   1.427       .  A
C1663      H1670   1.083       .  S
C1664      C3537   1.415   1_455  A
C1665      C3536   1.407       .  A
C1665      C1666   1.408       .  A
C1665      N1672   1.437       .  S
C1666      C1667   1.419       .  A
C1666      H1671   1.081       .  S
C1667      C3540   1.420       .  A
C1668      C3539   1.422       .  A
C1668      N1669   1.431       .  S
N1669      H1673   1.045       .  S
N1669      H1674   1.046       .  S
N1672      H1675   1.038       .  S
N1672      H1676   1.046       .  S
C1677      C1678   1.414       .  A
C1677      C1682   1.411       .  A
C1677      H1684   1.078       .  S
C1678      C1679   1.430       .  A
C1679      C1680   1.421       .  A
C1679      N1686   1.432       .  S
C1680      C1681   1.406       .  A
C1680      H1685   1.084       .  S
C1681      C1682   1.419       .  A
C1682      N1683   1.432       .  S
N1683      H1687   1.045       .  S
N1683      H1688   1.046       .  S
N1686      H1689   1.045       .  S
N1686      H1690   1.046       .  S
C1691      C1692   1.409       .  A
C1691      C1696   1.400       .  A
C1691      H1698   1.078       .  S
C1692      C1693   1.427       .  A
C1693      C1694   1.394       .  A
C1693      N1700   1.434       .  S
C1694      C1695   1.389       .  A
C1694      H1699   1.085       .  S
C1695      C1696   1.410       .  A
C1696      N1697   1.433       .  S
N1697      H1701   1.046       .  S
N1697      H1702   1.045       .  S
N1700      H1703   1.044       .  S
N1700      H1704   1.047       .  S
C1705      C1706   1.398       .  A
C1705      C1710   1.409       .  A
C1705      H1712   1.083       .  S
C1706      C1707   1.404       .  A
C1707      C1708   1.396       .  A
C1707      N1714   1.434       .  S
C1708      C1709   1.408       .  A
C1708      H1713   1.076       .  S
C1709      C1710   1.428       .  A
C1710      N1711   1.438       .  S
N1711      H1715   1.045       .  S
N1711      H1716   1.046       .  S
N1714      H1717   1.045       .  S
N1714      H1718   1.046       .  S
C1719      C1720   1.410       .  A
C1719      C1724   1.405       .  A
C1719      H1726   1.078       .  S
C1720      C1721   1.423       .  A
C1721      C1722   1.396       .  A
C1721      N1728   1.431       .  S
C1722      C1723   1.392       .  A
C1722      H1727   1.085       .  S
C1723      C1724   1.404       .  A
C1724      N1725   1.437       .  S
N1725      H1729   1.046       .  S
N1725      H1730   1.045       .  S
N1728      H1731   1.045       .  S
N1728      H1732   1.046       .  S
C1733      C1738   1.395       .  A
C1733      H1740   1.084       .  S
C1734      C1735   1.410       .  A
C1735      C1736   1.413       .  A
C1735      N1742   1.431       .  S
C1736      H1741   1.083       .  S
C1737      C1738   1.444       .  A
C1738      N1739   1.433   1_545  S
N1739      H1743   1.045       .  S
N1739      H1744   1.046       .  S
N1742      H1745   1.046       .  S
N1742      H1746   1.046       .  S
C1747      C1748   1.419       .  A
C1747      C1752   1.397       .  A
C1747      H1754   1.073   1_545  S
C1749      C1750   1.406       .  A
C1749      N1756   1.435       .  S
C1750      C1751   1.406       .  A
C1750      H1755   1.084       .  S
C1752      N1753   1.432   1_545  S
N1753      H1757   1.043       .  S
N1753      H1758   1.046       .  S
N1756      H1759   1.042       .  S
N1756      H1760   1.042       .  S
C1761      C1762   1.394       .  A
C1761      C1766   1.397       .  A
C1761      H3640   1.085   1_455  S
C1762      C1763   1.402       .  A
C1763      C1764   1.404       .  A
C1763      N1770   1.438       .  S
C1764      C1765   1.418       .  A
C1764      H1769   1.083       .  S
C1765      C1766   1.422       .  A
C1766      N3639   1.428   1_455  S
N1767      C3638   1.428       .  S
N1767      H1771   1.046       .  S
N1767      H3644   1.045       .  S
H1768      C3633   1.085       .  S
N1770      H1773   1.045       .  S
N1770      H1774   1.046       .  S
H1772      N3639   1.045       .  S
C1775      C1776   1.397       .  A
C1775      C1780   1.402       .  A
C1775      H1782   1.084       .  S
C1776      C1777   1.409       .  A
C1777      C1778   1.391       .  A
C1777      N3656   1.434   1_455  S
C1778      C1779   1.412       .  A
C1778      H1783   1.075       .  S
C1779      C1780   1.421       .  A
C1780      N1781   1.431       .  S
N1781      H1785   1.046       .  S
N1781      H1786   1.045       .  S
N1784      C3649   1.433       .  S
N1784      H1787   1.043       .  S
N1784      H1788   1.045       .  S
C1789      C1790   1.404       .  A
C1789      C1794   1.418       .  A
C1789      H1796   1.084       .  S
C1790      C1791   1.418       .  A
C1791      C1792   1.411       .  A
C1791      N1798   1.433       .  S
C1792      C1793   1.417       .  A
C1792      H1797   1.078       .  S
C1793      C1794   1.428       .  A
C1794      N1795   1.432       .  S
N1795      H1799   1.045       .  S
N1795      H1800   1.046       .  S
N1798      H1801   1.046       .  S
N1798      H1802   1.045       .  S
C1803      C1804   1.407       .  A
C1803      C1808   1.415       .  A
C1803      H1810   1.084       .  S
C1804      C1805   1.407       .  A
C1805      C1806   1.414       .  A
C1805      N1812   1.431       .  S
C1806      C1807   1.420       .  A
C1806      H1811   1.084       .  S
C1807      C1808   1.423       .  A
C1808      N1809   1.428       .  S
N1809      H1813   1.046       .  S
N1809      H1814   1.045       .  S
N1812      H1815   1.046       .  S
N1812      H1816   1.045       .  S
C1817      C1818   1.402       .  A
C1817      C1822   1.418       .  A
C1817      H1824   1.084       .  S
C1818      C1819   1.421       .  A
C1820      H1825   1.077   1_545  S
C1821      C1822   1.428       .  A
C1822      N1823   1.431       .  S
N1823      H1827   1.046       .  S
N1823      H1828   1.044       .  S
N1826      H1829   1.044       .  S
N1826      H1830   1.045   1_565  S
C1831      C1832   1.416       .  A
C1831      C1836   1.400       .  A
C1832      C1833   1.432       .  A
C1833      C1834   1.421       .  A
C1833      N1840   1.430       .  S
C1834      C1835   1.408       .  A
C1834      H1839   1.083       .  S
C1835      C1836   1.415       .  A
C1836      N1837   1.434       .  S
N1837      H1841   1.045       .  S
N1837      H1842   1.045       .  S
N1840      H1843   1.045       .  S
N1840      H1844   1.044       .  S
C1845      C1846   1.393   1_455  A
C1845      C1850   1.405       .  A
C1845      H1852   1.084       .  S
C1846      C1847   1.416       .  A
C1847      C1848   1.426       .  A
C1847      N3726   1.436       .  S
C1848      C1849   1.415   1_655  A
C1848      H1853   1.080       .  S
C1849      C1850   1.431       .  A
C1850      N1851   1.431       .  S
N1851      H1855   1.036       .  S
N1851      H1856   1.046       .  S
N1854      C3719   1.436       .  S
N1854      H1857   1.046       .  S
N1854      H1858   1.045       .  S
C1859      C3732   1.414       .  A
C1859      C3736   1.435       .  A
C1859      H1866   1.083       .  S
C1860      C3731   1.412       .  A
C1860      C1861   1.402   1_655  A
C1861      C1862   1.403       .  A
C1861      N1868   1.439       .  S
C1862      C1863   1.422       .  A
C1862      H1867   1.078       .  S
C1863      C1864   1.424   1_455  A
C1864      C3731   1.430       .  A
C1864      N3737   1.435       .  S
N1865      C3736   1.435       .  S
N1865      H1869   1.045       .  S
N1865      H1870   1.046       .  S
N1868      H1871   1.040       .  S
N1868      H1872   1.044       .  S
In1873     O1875   2.250       .  S
In1873     O1876   2.175       .  S
In1873     O1880   2.374       .  S
In1873     O1882   2.185   1_655  S
C1874      O1880   1.277       .  A
C1874      O1882   1.252   1_655  A
C1874      C1887   1.495       .  S
O1875      C1883   1.268       .  A
O1876      C1883   1.258       .  A
C1877      O1884   1.254       .  A
C1877      O1878   1.270       .  A
C1877      C2796   1.513       .  S
C1879      O1881   1.262       .  A
C1879      O1885   1.266       .  A
C1879      C1922   1.451       .  S
C1883      C2022   1.447       .  S
In1886     O1891   2.293       .  S
In1886     O1893   2.375       .  S
In1886     O1894   2.191       .  S
In1886     O1895   2.187   1_655  S
In1886     O1898   2.216       .  S
C1887      O1893   1.274       .  A
C1887      O1895   1.251   1_655  A
O1888      C1896   1.267       .  A
O1889      C1896   1.263       .  A
C1890      O1897   1.257       .  A
C1890      C2782   1.513       .  S
C1892      O1894   1.263       .  A
C1892      O1898   1.267       .  A
C1892      C2013   1.442       .  S
C1896      C1905   1.456       .  S
In1899     O1901   2.250       .  S
In1899     O1902   2.135       .  S
In1899     O1910   2.195       .  S
In1899     O1904   2.315       .  S
In1899     O1906   2.352       .  S
In1899     O1907   2.159   1_545  S
In1899     O1908   2.164       .  S
In1899     O2847   2.268   1_545  S
C1900      O1906   1.280       .  A
C1900      O1908   1.257       .  A
C1900      C1913   1.490       .  S
O1901      C1909   1.270       .  A
O1902      C1909   1.260       .  A
C1903      O1910   1.257       .  A
C1903      O1904   1.282       .  A
C1903      C2771   1.502       .  S
C1905      O2843   1.258       .  A
C1905      O1911   1.272       .  A
O1907      C2841   1.258       .  A
C1909      C1944   1.439       .  S
O1911     In2835   2.273       .  S
In1912     O2850   2.265   1_545  S
In1912     O1915   2.150   1_545  S
In1912     O1923   2.186       .  S
In1912     O1917   2.298       .  S
In1912     O1919   2.347       .  S
In1912     O1920   2.141       .  S
In1912     O1921   2.161       .  S
In1912     O1924   2.244       .  S
C1913      O1919   1.280       .  A
C1913      O1921   1.257       .  A
O1914     In2848   2.262       .  S
O1914      C1922   1.273       .  A
O1915      C2858   1.258       .  A
C1916      O1923   1.257       .  A
C1916      O1917   1.281       .  A
C1916      C2754   1.498       .  S
C1918      O1920   1.260       .  A
C1918      O1924   1.270       .  A
C1918      C1935   1.439       .  S
C1922      O2851   1.260       .  A
In1925     O1927   2.233       .  S
In1925     O1928   2.134       .  S
In1925     O1936   2.181       .  S
In1925     O1930   2.270       .  S
In1925     O1932   2.303       .  S
In1925     O1933   2.156       .  S
In1925     O1934   2.132       .  S
In1925     O1937   2.227       .  S
C1926      O1932   1.281       .  A
C1926      O1934   1.262       .  A
C1926      C1939   1.469       .  S
O1927      C1935   1.272       .  A
O1928      C1935   1.264       .  A
C1929      O1936   1.262       .  A
C1929      O1930   1.282       .  A
C1929      C2740   1.482       .  S
C1931      O1933   1.263       .  A
C1931      O1937   1.275       .  A
C1931      C1974   1.443       .  S
In1938     O1940   2.216       .  S
In1938     O1941   2.151       .  S
In1938     O1949   2.193       .  S
In1938     O1943   2.264       .  S
In1938     O1945   2.302       .  S
In1938     O1946   2.126       .  S
In1938     O1947   2.133       .  S
In1938     O1950   2.235       .  S
C1939      O1945   1.281       .  A
C1939      O1947   1.262       .  A
O1940      C1948   1.274       .  A
O1941      C1948   1.264       .  A
C1942      O1949   1.262       .  A
C1942      O1943   1.281       .  A
C1942      C2726   1.486       .  S
C1944      O1946   1.264       .  A
C1944      O1950   1.273       .  A
C1948      C1957   1.438       .  S
In1951     O1962   2.167       .  S
In1951     O1956   2.253       .  S
In1951     O1958   2.223       .  S
In1951     O1959   2.179       .  S
In1951     O1960   2.237       .  S
In1951     O1963   2.220       .  S
C1952      O1958   1.255       .  A
C1952      O1960   1.254       .  A
C1952      C1965   1.449       .  S
O1953      C1961   1.267       .  A
O1954      C1961   1.265   1_455  A
C1955      O1962   1.249       .  A
C1955      O1956   1.267       .  A
C1955      C2712   1.453       .  S
C1957      O1959   1.264       .  A
C1957      O1963   1.263       .  A
C1961      C1996   1.452       .  S
In1964     O1966   2.226       .  S
In1964     O1967   2.195       .  S
In1964     O1975   2.172       .  S
In1964     O1969   2.234       .  S
In1964     O1971   2.222       .  S
In1964     O1973   2.245       .  S
C1965      O1971   1.254       .  A
C1965      O1973   1.255       .  A
O1966      C1974   1.259       .  A
O1967      C1974   1.264       .  A
C1968      O1975   1.250       .  A
C1968      O1969   1.268       .  A
C1968      C2698   1.449       .  S
C1970      O1972   1.265       .  A
C1970      O1976   1.267       .  A
C1970      C1987   1.460       .  S
In1977     O1979   2.243       .  S
In1977     O1980   2.216       .  S
In1977     O1988   2.220       .  S
In1977     O1982   2.274       .  S
In1977     O1984   2.229       .  S
In1977     O2921   2.219       .  S
In1977     O1986   2.291       .  S
In1977     O2925   2.222   1_545  S
C1978      O1984   1.254       .  A
C1978      O1986   1.262       .  A
C1978      C1991   1.470       .  S
O1979      C1987   1.267       .  A
O1980      C1987   1.264       .  A
C1981      O1988   1.254       .  A
C1981      O1982   1.268       .  A
C1981      C2687   1.487       .  S
C1983      O1985   1.261       .  A
C1983      O1989   1.263       .  A
C1983      C2026   1.448       .  S
O1985     In2913   2.199       .  S
O1989     In2913   2.240       .  S
In1990     O2928   2.226   1_545  S
In1990     O2929   2.227       .  S
In1990     O2001   2.232       .  S
In1990     O1995   2.265       .  S
In1990     O1997   2.238       .  S
In1990     O1998   2.212       .  S
In1990     O1999   2.290       .  S
In1990     O2002   2.223       .  S
C1991      O1997   1.255       .  A
C1991      O1999   1.260       .  A
O1992     In2926   2.230       .  S
O1992      C2000   1.260       .  A
O1993     In2926   2.215       .  S
O1993      C2000   1.258       .  A
C1994      O2001   1.254       .  A
C1994      O1995   1.269       .  A
C1994      C2670   1.482       .  S
C1996      O1998   1.264       .  A
C1996      O2002   1.265       .  A
C2000      C2009   1.445       .  S
In2003     O2005   2.194       .  S
In2003     O2006   2.178       .  S
In2003     O2014   2.190       .  S
In2003     O2008   2.231       .  S
In2003     O2010   2.275       .  S
In2003     O2011   2.187       .  S
In2003     O2012   2.150       .  S
In2003     O2015   2.201       .  S
C2004      O2010   1.277       .  A
C2004      O2012   1.264       .  A
C2004      C2017   1.463       .  S
O2005      C2013   1.270       .  A
O2006      C2013   1.270       .  A
C2007      O2014   1.266       .  A
C2007      O2008   1.278       .  A
C2007      C2659   1.476       .  S
C2009      O2011   1.269       .  A
C2009      O2015   1.270       .  A
In2016     O2018   2.219       .  S
In2016     O2019   2.172       .  S
In2016     O2027   2.179       .  S
In2016     O2021   2.237       .  S
In2016     O2023   2.273       .  S
In2016     O2024   2.161       .  S
In2016     O2025   2.145       .  S
In2016     O2028   2.218       .  S
C2017      O2023   1.280       .  A
C2017      O2025   1.265       .  A
O2018      C2026   1.274       .  A
O2019      C2026   1.268       .  A
C2020      O2027   1.266       .  A
C2020      O2021   1.280       .  A
C2020      C2642   1.471       .  S
C2022      O2024   1.269       .  A
C2022      O2028   1.272       .  A
C2029      C2030   1.522       .  S
C2029      C2035   1.544       .  S
C2029      C2033   1.549       .  S
C2029      C2628   1.541       .  S
C2030      H2037   1.086       .  S
C2030      C2031   1.362   1_556  D
C2031      C2032   1.603       .  S
C2031      C2055   1.497       .  S
C2032      C2036   1.600       .  S
C2032      C2034   1.532   1_554  S
C2032      H2038   1.109       .  S
C2033      H2039   1.083       .  S
C2033      C2034   1.363       .  D
C2034      C2046   1.514       .  S
C2035      H2040   1.077       .  S
C2035      C2036   1.373   1_556  D
C2036      C2132   1.574   1_554  S
C2041      C2042   1.554       .  S
C2041      C2047   1.513       .  S
C2041      C2045   1.530       .  S
C2041      C2614   1.550       .  S
C2042      H2049   1.086       .  S
C2042      C2043   1.395   1_556  D
C2043      C2044   1.590       .  S
C2043      C2115   1.574   1_554  S
C2044      C2048   1.607       .  S
C2044      C2046   1.541   1_554  S
C2044      H2050   1.109       .  S
C2045      H2051   1.081       .  S
C2045      C2046   1.366       .  D
C2047      H2052   1.086       .  S
C2047      C2048   1.356   1_556  D
C2048      C2072   1.506       .  S
C2053      C2054   1.508       .  S
C2053      C2059   1.550       .  S
C2053      C2057   1.529       .  S
C2053      C2729   1.544       .  S
C2054      H2061   1.086       .  S
C2054      C2055   1.356       .  D
C2055      C2056   1.602       .  S
C2056      C2060   1.590       .  S
C2056      C2058   1.547       .  S
C2056      H2062   1.109       .  S
C2057      H2063   1.081       .  S
C2057      C2058   1.364       .  D
C2058      C2070   1.518       .  S
C2059      H2064   1.085       .  S
C2059      C2060   1.394       .  D
C2060      C2084   1.568       .  S
C2065      C2066   1.542       .  S
C2065      C2071   1.517       .  S
C2065      C2069   1.550       .  S
C2065      C2656   1.540       .  S
C2066      H2073   1.075       .  S
C2066      C2067   1.371       .  D
C2067      C2068   1.603       .  S
C2067      C2151   1.580       .  S
C2068      C2072   1.610       .  S
C2068      C2070   1.536       .  S
C2068      H2074   1.109       .  S
C2069      H2075   1.083       .  S
C2069      C2070   1.369       .  D
C2071      H2076   1.087       .  S
C2071      C2072   1.358       .  D
C2077      C2078   1.532       .  S
C2077      C2083   1.471       .  S
C2077      C2081   1.601       .  S
C2077      C2715   1.526       .  S
C2078      H2085   1.085       .  S
C2078      C2079   1.352       .  D
C2079      C2080   1.613       .  S
C2079      C2094   1.580       .  S
C2080      C2084   1.641       .  S
C2080      C2082   1.542       .  S
C2080      H2086   1.106       .  S
C2081      H2087   1.080       .  S
C2081      C2082   1.369       .  D
C2083      H2088   1.086       .  S
C2083      C2084   1.363       .  D
C2089      C2090   1.518       .  S
C2089      C2095   1.520       .  S
C2089      C2093   1.514       .  S
C2089      C2785   1.580       .  S
C2090      C2091   1.390       .  D
C2091      C2092   1.627       .  S
C2092      C2096   1.570       .  S
C2092      C2094   1.584       .  S
C2092      H2098   1.110       .  S
C2093      H2099   1.077       .  S
C2093      C2094   1.389       .  D
C2095      H2100   1.078       .  S
C2095      C2096   1.375       .  D
C2096      C2163   1.555       .  S
C2101      C2102   1.517       .  S
C2101      C2107   1.533       .  S
C2101      C2603   1.580   1_655  S
C2102      H2109   1.076   1_655  S
C2102      C2103   1.394   1_556  D
C2103      C2104   1.580       .  S
C2103      C2120   1.578       .  S
C2104      C2108   1.566   1_554  S
C2104      C2106   1.619   1_655  S
C2104      H2110   1.109       .  S
C2105      H2111   1.084       .  S
C2107      H2112   1.081       .  S
C2107      C2108   1.378       .  D
C2108      C2144   1.557   1_556  S
C2113      C2114   1.471       .  S
C2113      C2119   1.526       .  S
C2113      C2117   1.624       .  S
C2113      C2586   1.539       .  S
C2114      H2121   1.083       .  S
C2114      C2115   1.362       .  D
C2115      C2116   1.639   1_556  S
C2116      C2120   1.610       .  S
C2116      C2118   1.536       .  S
C2116      H2122   1.104       .  S
C2117      C2118   1.382   1_556  D
C2119      H2124   1.087       .  S
C2119      C2120   1.349   1_556  D
C2125      C2126   1.544       .  S
C2125      C2131   1.482       .  S
C2125      C2129   1.584       .  S
C2125      C2575   1.550       .  S
C2126      H2133   1.079       .  S
C2126      C2127   1.342       .  D
C2127      C2128   1.597   1_556  S
C2127      C2142   1.567       .  S
C2128      C2132   1.628   1_554  S
C2128      C2130   1.554       .  S
C2128      H2134   1.106       .  S
C2129      H2135   1.083       .  S
C2129      C2130   1.372   1_556  D
C2130      C2168   1.529       .  S
C2131      H2136   1.081       .  S
C2131      C2132   1.390       .  D
C2137      C2138   1.508       .  S
C2137      C2143   1.526       .  S
C2137      C2141   1.512       .  S
C2137      C2561   1.565       .  S
C2138      H2145   1.078   1_545  S
C2138      C2139   1.379   1_556  D
C2139      C2140   1.611       .  S
C2139      C2154   1.520       .  S
C2140      C2144   1.601       .  S
C2140      C2142   1.551   1_554  S
C2140      H2146   1.109       .  S
C2141      H2147   1.082       .  S
C2141      C2142   1.385       .  D
C2143      H2148   1.083       .  S
C2143      C2144   1.373   1_556  D
C2149      C2150   1.496       .  S
C2149      C2155   1.530       .  S
C2149      C3089   1.585       .  S
C2149      C2673   1.565       .  S
C2150      H2157   1.083       .  S
C2150      C2151   1.400       .  D
C2151      C2152   1.633       .  S
C2152      C2156   1.608       .  S
C2152      C3090   1.560       .  S
C2152      H2158   1.106       .  S
C2153      C3085   1.566   1_545  S
C2153      H2159   1.084       .  S
C2153      C2154   1.374       .  D
C2154      C3088   1.568   1_545  S
C2155      H2160   1.087       .  S
C2155      C2156   1.333       .  D
C2156      C2166   1.564       .  S
C2161      C3098   1.531   1_545  S
C2161      C2167   1.507       .  S
C2161      C3101   1.514   1_545  S
C2161      C2768   1.566       .  S
C2162      C3097   1.533       .  S
C2162      H2169   1.081       .  S
C2162      C2163   1.371       .  D
C2163      C2164   1.594       .  S
C2164      C3104   1.601       .  S
C2164      C2166   1.538       .  S
C2164      H2170   1.108       .  S
C2165      C3097   1.525       .  S
C2165      H2171   1.079       .  S
C2165      C2166   1.384       .  D
C2167      H2172   1.080       .  S
C2167      C2168   1.379       .  D
C2168      C3100   1.616   1_545  S
C2173      C2174   1.488       .  S
C2173      C2179   1.530       .  S
C2173      C2177   1.572       .  S
C2173      C2544   1.547       .  S
C2174      H2181   1.082       .  S
C2174      C2175   1.396       .  D
C2175      C2176   1.631       .  S
C2175      C2228   1.574       .  S
C2176      C2180   1.590       .  S
C2176      C2178   1.555       .  S
C2176      H2182   1.106       .  S
C2177      H2183   1.078       .  S
C2177      C2178   1.354       .  D
C2178      C2211   1.510       .  S
C2179      H2184   1.088       .  S
C2179      C2180   1.347       .  D
C2180      C2190   1.562       .  S
C2185      C2186   1.519       .  S
C2185      C2191   1.518       .  S
C2185      C2189   1.501       .  S
C2185      C2530   1.566       .  S
C2186      H2193   1.082       .  S
C2186      C2187   1.372       .  D
C2187      C2188   1.600       .  S
C2187      C2300   1.559       .  S
C2188      C2192   1.618       .  S
C2188      C2190   1.561       .  S
C2188      H2194   1.109       .  S
C2189      H2195   1.083       .  S
C2189      C2190   1.381       .  D
C2191      H2196   1.081   1_545  S
C2191      C2192   1.387       .  D
C2192      C2202   1.535       .  S
C2197      C2198   1.515       .  S
C2197      C2203   1.493       .  S
C2197      C3137   1.566       .  S
C2197      C2684   1.564       .  S
C2198      H2205   1.086       .  S
C2198      C2199   1.339       .  D
C2199      C2200   1.608       .  S
C2199      C2214   1.567       .  S
C2200      C2204   1.628       .  S
C2200      C3138   1.565       .  S
C2200      H2206   1.107       .  S
C2201      C3133   1.581   1_545  S
C2201      H2207   1.083       .  S
C2201      C2202   1.372       .  D
C2202      C3136   1.555   1_545  S
C2203      H2208   1.079       .  S
C2203      C2204   1.395       .  D
C2204      C2264   1.576       .  S
C2209      C2210   1.498       .  S
C2209      C3151   1.527   1_545  S
C2209      C3149   1.521   1_545  S
C2209      C2757   1.554       .  S
C2210      H2217   1.082       .  S
C2210      C2211   1.370       .  D
C2211      C3148   1.619   1_545  S
C2212      C3147   1.592       .  S
C2212      C2216   1.605       .  S
C2212      C2214   1.543       .  S
C2212      H2218   1.109       .  S
C2213      C3145   1.530       .  S
C2213      H2219   1.076       .  S
C2213      C2214   1.386       .  D
C2215      C3145   1.527       .  S
C2215      H2220   1.083       .  S
C2215      C2216   1.373       .  D
C2216      C2283   1.550       .  S
C2221      C2222   1.550       .  S
C2221      C2227   1.540       .  S
C2221      C2225   1.514       .  S
C2221      C2519   1.539       .  S
C2222      H2229   1.082       .  S
C2222      C2223   1.365       .  D
C2223      C2224   1.539       .  S
C2223      C2238   1.519       .  S
C2224      C2228   1.600       .  S
C2224      C2226   1.604       .  S
C2224      H2230   1.109       .  S
C2225      H2231   1.086       .  S
C2225      C2226   1.363       .  D
C2226      C2252   1.497       .  S
C2227      H2232   1.075       .  S
C2227      C2228   1.369       .  D
C2233      C2234   1.517       .  S
C2233      C2239   1.553       .  S
C2233      C2237   1.534       .  S
C2233      C2502   1.554       .  S
C2234      H2241   1.086       .  S
C2234      C2235   1.358       .  D
C2235      C2236   1.602       .  S
C2235      C2259   1.503       .  S
C2236      C2240   1.590       .  S
C2236      C2238   1.543       .  S
C2236      H2242   1.109       .  S
C2237      H2243   1.081       .  S
C2237      C2238   1.370       .  D
C2239      H2244   1.082       .  S
C2239      C2240   1.389       .  D
C2240      C2312   1.571       .  S
C2245      C2246   1.549       .  S
C2245      C2251   1.522       .  S
C2245      C2249   1.535       .  S
C2245      C2743   1.548       .  S
C2246      H2253   1.082       .  S
C2246      C2247   1.387       .  D
C2247      C2248   1.590       .  S
C2247      C2276   1.565       .  S
C2248      C2252   1.595       .  S
C2248      C2250   1.543       .  S
C2248      H2254   1.109       .  S
C2249      H2255   1.081       .  S
C2249      C2250   1.366       .  D
C2250      C2262   1.519       .  S
C2251      H2256   1.086       .  S
C2251      C2252   1.361       .  D
C2257      C2258   1.514       .  S
C2257      C2263   1.539       .  S
C2257      C2261   1.542       .  S
C2257      C2645   1.533       .  S
C2258      H2265   1.087       .  S
C2258      C2259   1.360       .  D
C2259      C2260   1.612       .  S
C2260      C2264   1.602       .  S
C2260      C2262   1.541       .  S
C2260      H2266   1.109       .  S
C2261      H2267   1.081       .  S
C2261      C2262   1.368       .  D
C2263      H2268   1.083       .  S
C2263      C2264   1.372       .  D
C2269      C2270   1.604       .  S
C2269      C2275   1.482       .  S
C2269      C2273   1.526       .  S
C2269      C2701   1.536       .  S
C2270      H2277   1.077       .  S
C2270      C2271   1.373       .  D
C2271      C2272   1.547       .  S
C2272      C2276   1.630       .  S
C2272      C2274   1.599       .  S
C2272      H2278   1.105       .  S
C2273      H2279   1.087       .  S
C2273      C2274   1.354       .  D
C2274      C2286   1.569       .  S
C2275      H2280   1.081       .  S
C2275      C2276   1.364       .  D
C2281      C2282   1.536       .  S
C2281      C2287   1.521       .  S
C2281      C2285   1.520       .  S
C2281      C2799   1.581       .  S
C2282      H2289   1.080       .  S
C2282      C2283   1.377       .  D
C2283      C2284   1.557       .  S
C2284      C2288   1.613       .  S
C2284      C2286   1.583       .  S
C2284      H2290   1.109       .  S
C2285      H2291   1.078       .  S
C2285      C2286   1.388       .  D
C2287      C2288   1.389       .  D
C2293      C2299   1.526       .  S
C2293      C2297   1.539       .  S
C2293      C2491   1.586   1_655  S
C2294      H2301   1.083       .  S
C2295      C2296   1.624       .  S
C2296      C2300   1.573       .  S
C2296      C2298   1.585       .  S
C2296      H2302   1.109       .  S
C2297      H2303   1.058   1_655  S
C2297      C2298   1.395       .  D
C2298      C2307   1.583       .  S
C2299      H2304   1.082       .  S
C2299      C2300   1.377       .  D
C2305      C2306   1.539       .  S
C2305      C2311   1.481       .  S
C2305      C2309   1.596       .  S
C2305      C2474   1.538       .  S
C2306      H2313   1.071       .  S
C2306      C2307   1.350       .  D
C2307      C2308   1.612       .  S
C2308      C2312   1.641       .  S
C2308      C2310   1.542       .  S
C2308      H2314   1.105       .  S
C2309      C2310   1.372       .  D
C2311      H2316   1.087       .  S
C2311      C2312   1.366       .  D
In2317     O2319   2.218       .  S
In2317     O2320   2.212       .  S
In2317     O2328   2.173       .  S
In2317     O2324   2.253       .  S
In2317     O2326   2.238       .  S
C2318      O2324   1.257       .  A
C2318      O2326   1.255       .  A
C2318      C2331   1.460       .  S
O2319      C2327   1.266       .  A
O2320      C2327   1.266       .  A
C2321      O2322   1.270       .  A
C2321      C2477   1.467       .  S
C2323      O2325   1.265       .  A
C2323      O2329   1.262       .  A
C2323      C2457   1.439       .  S
C2327      C2349   1.453       .  S
In2330     O2332   2.221       .  S
In2330     O2333   2.174       .  S
In2330     O2341   2.181       .  S
In2330     O2335   2.255       .  S
In2330     O2337   2.222       .  S
C2331      O2339   1.254       .  A
O2332      C2340   1.263       .  A
O2333      C2340   1.262       .  A
C2334      O2341   1.250       .  A
C2334      O2335   1.271       .  A
C2334      C2589   1.465       .  S
C2336      O2338   1.265       .  A
C2336      O2342   1.266       .  A
C2336      C2366   1.454       .  S
C2340      C2466   1.436       .  S
In2343     O2345   2.226       .  S
In2343     O2346   2.223       .  S
In2343     O2354   2.202   1_545  S
In2343     O2348   2.254       .  S
In2343     O2350   2.278   1_545  S
In2343     O3287   2.197   1_545  S
In2343     O2352   2.203       .  S
In2343     O3291   2.233   1_545  S
C2344      O2350   1.260   1_545  A
C2344      O2352   1.252       .  A
C2344      C2357   1.458       .  S
O2345      C2353   1.258       .  A
O2346      C2353   1.261       .  A
C2347      O2354   1.251   1_545  A
C2347      O2348   1.263       .  A
C2347      C2547   1.459       .  S
C2349      O2351   1.264       .  A
C2349      O2355   1.267       .  A
O2351     In3279   2.211       .  S
C2353      C2375   1.447       .  S
O2355     In3279   2.228       .  S
In2356     O3294   2.218   1_545  S
In2356     O3295   2.208   1_545  S
In2356     O2367   2.215       .  S
In2356     O2361   2.267       .  S
In2356     O2363   2.280   1_545  S
In2356     O2364   2.207       .  S
In2356     O2365   2.207       .  S
In2356     O2368   2.235       .  S
C2357      O2363   1.260   1_545  A
C2357      O2365   1.253       .  A
O2358     In3292   2.224       .  S
O2358      C2366   1.266       .  A
O2359     In3292   2.211       .  S
O2359      C2366   1.265       .  A
C2360      O2367   1.252       .  A
C2360      O2361   1.267       .  A
C2360      C2572   1.480       .  S
C2362      O2364   1.262       .  A
C2362      O2368   1.261       .  A
C2362      C2392   1.448       .  S
In2369     O2371   2.210       .  S
In2369     O2372   2.159       .  S
In2369     O2380   2.177       .  S
In2369     O2374   2.256       .  S
In2369     O2376   2.276       .  S
In2369     O2377   2.187       .  S
In2369     O2378   2.157       .  S
In2369     O2381   2.208       .  S
C2370      O2376   1.278       .  A
C2370      O2378   1.263       .  A
C2370      C2383   1.466       .  S
O2371      C2379   1.269       .  A
O2372      C2379   1.268       .  A
C2373      O2380   1.263       .  A
C2373      O2374   1.279       .  A
C2373      C2516   1.480       .  S
C2375      O2377   1.266       .  A
C2375      O2381   1.271       .  A
C2379      C2401   1.438       .  S
In2382     O2384   2.220       .  S
In2382     O2385   2.177       .  S
In2382     O2393   2.173       .  S
In2382     O2387   2.258       .  S
In2382     O2389   2.277       .  S
In2382     O2390   2.145       .  S
In2382     O2391   2.156       .  S
In2382     O2394   2.222       .  S
C2383      O2389   1.279       .  A
C2383      O2391   1.264       .  A
O2384      C2392   1.273       .  A
O2385      C2392   1.266       .  A
C2386      O2393   1.264       .  A
C2386      O2387   1.281       .  A
C2386      C2631   1.480       .  S
C2388      O2390   1.267       .  A
C2388      O2394   1.272       .  A
C2388      C2418   1.440       .  S
In2395     O2406   2.236       .  S
In2395     O2400   2.333       .  S
In2395     O2402   2.377       .  S
In2395     O2403   2.158       .  S
In2395     O2404   2.203       .  S
In2395     O2407   2.231       .  S
C2396      O2402   1.279       .  A
C2396      O2404   1.256       .  A
C2396      C2409   1.505       .  S
O2397      C2405   1.269       .  A
O2398      C2405   1.264       .  A
C2399      O2406   1.258       .  A
C2399      O2400   1.281       .  A
C2399      C2488   1.522       .  S
C2401      O2403   1.259       .  A
C2401      O2407   1.269       .  A
C2405      C2427   1.457       .  S
In2408     O2410   2.240       .  S
In2408     O2411   2.148       .  S
In2408     O2419   2.234       .  S
In2408     O2413   2.346       .  S
In2408     O2415   2.367       .  S
In2408     O2417   2.197       .  S
C2409      O2415   1.281       .  A
C2409      O2417   1.257       .  A
O2410      C2418   1.269       .  A
O2411      C2418   1.258       .  A
C2412      O2419   1.259       .  A
C2412      O2413   1.281       .  A
C2412      C2600   1.514       .  S
C2414      O2416   1.262       .  A
C2414      O2420   1.266       .  A
C2414      C2444   1.453       .  S
In2421     O3359   2.223   1_545  S
In2421     O3360   2.212       .  S
In2421     O2432   2.297       .  S
In2421     O2426   2.292       .  S
In2421     O2428   2.288       .  S
In2421     O2429   2.220       .  S
In2421     O2430   2.317       .  S
In2421     O2433   2.249       .  S
C2422      O2428   1.254       .  A
C2422      O2430   1.256       .  A
C2422      C2435   1.495       .  S
O2423     In3357   2.229       .  S
O2423      C2431   1.262       .  A
O2424     In3357   2.200       .  S
O2424      C2431   1.260       .  A
C2425      O2432   1.252       .  A
C2425      O2426   1.261       .  A
C2425      C2533   1.504       .  S
C2427      O2429   1.263       .  A
C2427      O2433   1.264       .  A
C2431      C2453   1.439       .  S
In2434     O2436   2.237       .  S
In2434     O2437   2.209       .  S
In2434     O2445   2.239       .  S
In2434     O2439   2.327       .  S
In2434     O2441   2.280       .  S
In2434     O3378   2.203       .  S
In2434     O2443   2.313       .  S
In2434     O3382   2.229   1_545  S
C2435      O2441   1.255       .  A
C2435      O2443   1.259       .  A
O2436      C2444   1.267       .  A
O2437      C2444   1.265       .  A
C2438      O2445   1.253       .  A
C2438      O2439   1.263       .  A
C2438      C2558   1.507       .  S
C2440      O2442   1.264       .  A
C2440      O2446   1.267       .  A
C2440      C2470   1.440       .  S
O2442     In3370   2.161       .  S
O2446     In3370   2.230       .  S
In2447     O2449   2.179       .  S
In2447     O2450   2.172       .  S
In2447     O2458   2.226       .  S
In2447     O2452   2.262       .  S
In2447     O2454   2.282       .  S
In2447     O2455   2.161       .  S
In2447     O2456   2.186       .  S
In2447     O2459   2.193       .  S
C2448      O2454   1.280       .  A
C2448      O2456   1.268       .  A
C2448      C2461   1.478       .  S
O2449      C2457   1.273       .  A
O2450      C2457   1.271       .  A
C2451      O2458   1.268       .  A
C2451      O2452   1.278       .  A
C2451      C2505   1.493       .  S
C2453      O2455   1.270       .  A
C2453      O2459   1.272       .  A
In2460     O2462   2.214       .  S
In2460     O2463   2.136       .  S
In2460     O2471   2.227       .  S
In2460     O2465   2.263       .  S
In2460     O2467   2.280       .  S
In2460     O2468   2.138       .  S
In2460     O2469   2.181       .  S
In2460     O2472   2.198       .  S
C2461      O2467   1.282       .  A
C2461      O2469   1.269       .  A
O2462      C2470   1.275       .  A
O2463      C2470   1.269       .  A
C2464      O2471   1.268       .  A
C2464      O2465   1.279       .  A
C2464      C2617   1.493       .  S
C2466      O2468   1.269       .  A
C2466      O2472   1.276       .  A
C2473      C2474   1.424       .  A
C2473      C2478   1.399       .  A
C2473      H2480   1.071       .  S
C2474      C2475   1.423       .  A
C2475      C2476   1.386       .  A
C2475      N2482   1.434       .  S
C2476      C2477   1.400       .  A
C2477      C2478   1.394       .  A
C2478      N2479   1.432       .  S
N2479      H2483   1.046       .  S
N2479      H2484   1.044       .  S
N2482      H2485   1.038       .  S
C2487      C2488   1.411       .  A
C2487      C2492   1.411       .  A
C2487      H2494   1.084       .  S
C2489      C2490   1.428       .  A
C2489      N2496   1.437       .  S
C2490      C2491   1.430       .  A
C2490      H2495   1.073       .  S
C2492      N2493   1.434       .  S
N2493      H2497   1.044       .  S
N2493      H2498   1.041       .  S
N2496      H2499   1.041       .  S
N2496      H2500   1.045       .  S
C2501      C2502   1.412       .  A
C2501      C2506   1.412       .  A
C2501      H2508   1.073       .  S
C2502      C2503   1.425       .  A
C2503      C2504   1.412       .  A
C2503      N2510   1.432       .  S
C2504      C2505   1.400       .  A
C2504      H2509   1.084       .  S
C2505      C2506   1.411       .  A
C2506      N2507   1.438       .  S
N2507      H2511   1.044       .  S
N2507      H2512   1.047       .  S
N2510      H2513   1.045       .  S
N2510      H2514   1.044       .  S
C2515      C2516   1.403       .  A
C2515      C2520   1.399       .  A
C2515      H2522   1.084       .  S
C2516      C2517   1.407       .  A
C2517      C2518   1.409       .  A
C2517      N2524   1.437       .  S
C2518      C2519   1.416       .  A
C2518      H2523   1.082       .  S
C2519      C2520   1.414       .  A
C2520      N2521   1.429       .  S
N2521      H2525   1.046       .  S
N2521      H2526   1.046       .  S
N2524      H2527   1.045       .  S
N2524      H2528   1.045       .  S
C2529      C2530   1.420       .  A
C2529      C2534   1.409       .  A
C2529      H2536   1.076       .  S
C2530      C2531   1.423       .  A
C2531      C2532   1.424       .  A
C2531      N2538   1.430   1_545  S
C2532      C2533   1.408       .  A
C2532      H2537   1.081   1_545  S
C2533      C2534   1.409       .  A
C2534      N2535   1.440       .  S
N2535      H2539   1.045       .  S
N2535      H2540   1.046       .  S
N2538      H2541   1.045       .  S
N2538      H2542   1.046       .  S
C2543      C2544   1.422       .  A
C2543      C2548   1.391       .  A
C2543      H2550   1.071   1_545  S
C2544      C2545   1.434       .  A
C2545      C2546   1.402       .  A
C2545      N2552   1.441       .  S
C2546      C2547   1.397       .  A
C2546      H2551   1.085       .  S
C2547      C2548   1.398       .  A
C2548      N2549   1.435   1_545  S
N2549      H3489   1.045       .  S
N2549      H2554   1.044       .  S
N2552      H2555   1.038       .  S
N2552      H2556   1.045       .  S
H2553      N3485   1.044       .  S
C2557      C2558   1.405       .  A
C2557      C2562   1.419       .  A
C2557      H2564   1.083   1_545  S
C2558      C2559   1.419       .  A
C2559      C2560   1.401       .  A
C2559      N2566   1.434       .  S
C2560      C2561   1.413       .  A
C2560      H2565   1.076       .  S
C2561      C2562   1.435       .  A
C2562      N2563   1.431   1_545  S
N2563      H2567   1.043       .  S
N2563      H2568   1.045       .  S
N2566      H2569   1.042       .  S
N2566      H2570   1.046       .  S
C2571      C2572   1.406       .  A
C2571      C2576   1.408       .  A
C2571      H2578   1.084   1_545  S
C2572      C2573   1.403       .  A
C2573      C2574   1.400       .  A
C2573      N2580   1.433       .  S
C2574      C2575   1.417       .  A
C2574      H2579   1.075       .  S
C2575      C2576   1.417       .  A
C2576      N2577   1.432       .  S
N2577      H3517   1.046   1_545  S
N2577      H2582   1.046       .  S
N2580      H2583   1.045       .  S
N2580      H2584   1.046       .  S
H2581      N3513   1.046       .  S
C2585      C2586   1.408       .  A
C2585      C2590   1.392       .  A
C2585      H2592   1.074   1_655  S
C2586      C2587   1.440       .  A
C2587      C2588   1.395       .  A
C2587      N2594   1.437       .  S
C2588      C2589   1.392       .  A
C2588      H2593   1.085       .  S
C2589      C2590   1.410       .  A
C2590      N2591   1.434   1_655  S
N2591      H2595   1.044       .  S
N2594      H2597   1.042       .  S
N2594      H2598   1.039       .  S
C2599      C2600   1.415       .  A
C2599      C2604   1.435       .  A
C2599      H2606   1.083       .  S
C2601      C2602   1.412       .  A
C2601      N2608   1.437       .  S
C2602      C2603   1.421   1_655  A
C2602      H2607   1.080       .  S
C2604      N2605   1.431       .  S
N2605      H2609   1.046       .  S
N2605      H2610   1.045       .  S
N2608      H2611   1.040       .  S
N2608      H2612   1.044       .  S
C2613      C2614   1.415       .  A
C2613      C2618   1.409       .  A
C2613      H2620   1.080       .  S
C2614      C2615   1.429       .  A
C2615      C2616   1.409       .  A
C2615      N2622   1.432       .  S
C2616      C2617   1.397       .  A
C2616      H2621   1.084       .  S
C2617      C2618   1.416       .  A
C2618      N2619   1.434       .  S
N2619      H2623   1.044       .  S
N2619      H2624   1.046       .  S
N2622      H2625   1.046       .  S
N2622      H2626   1.045       .  S
C2627      C2628   1.419       .  A
C2627      C2632   1.408       .  A
C2627      H2634   1.084       .  S
C2628      C2629   1.419       .  A
C2629      C2630   1.401       .  A
C2629      N2636   1.428       .  S
C2630      C2631   1.402       .  A
C2630      H2635   1.084       .  S
C2631      C2632   1.404       .  A
C2632      N2633   1.437       .  S
N2633      H2637   1.044       .  S
N2633      H2638   1.045       .  S
N2636      H2639   1.046       .  S
N2636      H2640   1.045       .  S
C2641      C2642   1.397       .  A
C2641      C2646   1.405       .  A
C2641      H2648   1.084       .  S
C2642      C2643   1.406       .  A
C2643      C2644   1.399       .  A
C2643      N2650   1.434       .  S
C2644      C2645   1.410       .  A
C2644      H2649   1.075       .  S
C2645      C2646   1.421       .  A
C2646      N2647   1.431       .  S
N2647      H2651   1.046       .  S
N2647      H2652   1.043       .  S
N2650      H2653   1.045       .  S
N2650      H2654   1.046       .  S
C2655      C2656   1.415       .  A
C2655      C2660   1.401       .  A
C2655      H2662   1.084       .  S
C2656      C2657   1.418       .  A
C2657      C2658   1.404       .  A
C2657      N2664   1.428       .  S
C2658      C2659   1.403       .  A
C2658      H2663   1.084       .  S
C2659      C2660   1.401       .  A
C2660      N2661   1.431       .  S
N2661      H2665   1.046       .  S
N2661      H2666   1.045       .  S
N2664      H2667   1.046       .  S
N2664      H2668   1.045       .  S
C2669      C3606   1.391       .  A
C2669      C2674   1.402       .  A
C2669      H2676   1.084       .  S
C2670      C3605   1.390       .  A
C2670      C2671   1.413       .  A
C2671      C2672   1.412       .  A
C2671      N2678   1.435       .  S
C2672      C3609   1.409       .  A
C2672      H2677   1.083       .  S
C2673      C3608   1.412       .  A
C2673      C2674   1.439       .  A
C2674      N2675   1.430       .  S
N2675      H2679   1.046       .  S
N2675      H2680   1.046       .  S
N2678      H2681   1.045       .  S
N2678      H2682   1.046       .  S
C2683      C2684   1.421       .  A
C2683      C2688   1.399       .  A
C2683      H2690   1.067       .  S
C2684      C3621   1.423       .  A
C2685      C3620   1.426       .  A
C2685      C2686   1.402       .  A
C2685      N2692   1.435       .  S
C2686      C2687   1.405       .  A
C2686      H2691   1.084       .  S
C2687      C3624   1.405       .  A
C2688      C3623   1.402       .  A
C2688      N2689   1.436       .  S
N2689      H2693   1.046       .  S
N2689      H2694   1.045       .  S
N2692      H2695   1.044       .  S
N2692      H2696   1.039       .  S
C2697      C2698   1.394       .  A
C2697      C2702   1.396       .  A
C2698      C2699   1.397       .  A
C2699      C2700   1.398       .  A
C2699      N2706   1.439       .  S
C2700      C2701   1.419       .  A
C2700      H2705   1.083       .  S
C2701      C2702   1.420       .  A
N2703      H2707   1.046       .  S
N2706      H2709   1.046       .  S
N2706      H2710   1.045       .  S
C2711      C2712   1.392       .  A
C2711      C2716   1.396       .  A
C2711      H2718   1.084       .  S
C2712      C2713   1.410       .  A
C2713      C2714   1.389       .  A
C2714      C2715   1.407       .  A
C2714      H2719   1.074       .  S
C2715      C2716   1.422       .  A
C2716      N2717   1.434       .  S
N2717      H2721   1.046       .  S
N2717      H2722   1.043       .  S
N2720      H2723   1.044       .  S
N2720      H2724   1.045       .  S
C2725      C2726   1.396       .  A
C2725      C2730   1.408       .  A
C2725      H2732   1.084       .  S
C2726      C2727   1.416       .  A
C2727      C2728   1.402       .  A
C2727      N2734   1.434       .  S
C2728      C2729   1.411       .  A
C2728      H2733   1.080       .  S
C2729      C2730   1.429       .  A
C2730      N2731   1.432       .  S
N2731      H2735   1.046       .  S
N2731      H2736   1.045       .  S
N2734      H2737   1.046       .  S
N2734      H2738   1.044       .  S
C2739      C2740   1.399       .  A
C2739      C2744   1.403       .  A
C2739      H2746   1.085       .  S
C2740      C2741   1.400       .  A
C2741      C2742   1.412       .  A
C2741      N2748   1.432       .  S
C2742      C2743   1.423       .  A
C2742      H2747   1.082       .  S
C2743      C2744   1.424       .  A
C2744      N2745   1.429       .  S
N2745      H2749   1.046       .  S
N2745      H2750   1.045       .  S
N2748      H2751   1.045       .  S
N2748      H2752   1.043       .  S
C2753      C2754   1.403       .  A
C2753      C2758   1.415       .  A
C2753      H2760   1.084       .  S
C2754      C2755   1.422       .  A
C2755      C3692   1.398       .  A
C2755      N3698   1.434   1_545  S
C2756      C3691   1.401       .  A
C2756      C3693   1.411       .  A
C2756      H2761   1.076       .  S
C2757      C3692   1.408       .  A
C2757      C2758   1.425       .  A
C2758      N2759   1.432       .  S
N2759      H2763   1.046       .  S
N2759      H2764   1.044       .  S
N2762      C3691   1.434       .  S
N2762      H2765   1.044       .  S
N2762      H2766   1.045       .  S
C2767      C2768   1.413       .  A
C2767      C2772   1.401       .  A
C2767      H3710   1.075   1_545  S
C2768      C2769   1.437       .  A
C2769      C2770   1.417       .  A
C2769      N2776   1.432       .  S
C2770      C2771   1.403       .  A
C2770      H2775   1.084       .  S
C2771      C2772   1.418       .  A
C2772      N2773   1.435   1_545  S
N2773      H2777   1.044       .  S
N2773      H2778   1.046       .  S
H2774      C3703   1.075       .  S
N2776      H2779   1.045       .  S
N2776      H2780   1.043       .  S
C2781      C2782   1.395       .  A
C2781      C2786   1.406       .  A
C2781      H2788   1.085       .  S
C2782      C2783   1.419       .  A
C2783      C2784   1.433       .  A
C2784      C2785   1.417       .  A
C2784      H2789   1.082       .  S
C2785      C2786   1.439       .  A
C2786      N2787   1.432       .  S
N2787      H2791   1.040       .  S
N2787      H2792   1.045       .  S
N2790      H2793   1.046       .  S
N2790      H2794   1.045       .  S
C2795      H2802   1.083       .  S
C2796      C2797   1.408       .  A
C2797      C2798   1.406       .  A
C2797      N2804   1.439       .  S
C2798      C2799   1.421       .  A
C2798      H2803   1.078       .  S
C2799      C2800   1.425       .  A
N2801      H2805   1.046       .  S
N2801      H2806   1.045       .  S
N2804      H2807   1.037       .  S
N2804      H2808   1.045       .  S
In2809     O2811   2.234       .  S
In2809     O2812   2.144       .  S
In2809     O2816   2.364       .  S
In2809     O2818   2.172   1_655  S
C2810      O2816   1.279       .  A
C2810      O2818   1.253   1_655  A
C2810      C2823   1.491       .  S
O2811      C2819   1.271       .  A
O2812      C2819   1.260       .  A
C2813      O2820   1.252       .  A
C2813      O2814   1.279       .  A
C2813      C3732   1.504       .  S
C2815      O2817   1.261       .  A
C2815      O2821   1.268       .  A
C2815      C2858   1.449       .  S
C2819      C2958   1.436       .  S
In2822     O2827   2.294       .  S
In2822     O2829   2.363       .  S
In2822     O2830   2.180       .  S
In2822     O2831   2.174   1_655  S
In2822     O2834   2.226       .  S
C2823      O2829   1.277       .  A
C2823      O2831   1.254   1_655  A
O2824      C2832   1.267       .  A
O2825      C2832   1.263       .  A
C2826      O2833   1.255       .  A
C2826      C3718   1.508       .  S
C2828      O2830   1.262       .  A
C2828      O2834   1.268       .  A
C2828      C2949   1.444       .  S
C2832      C2841   1.454       .  S
In2835     O2837   2.252       .  S
In2835     O2838   2.129       .  S
In2835     O2846   2.171       .  S
In2835     O2840   2.302       .  S
In2835     O2842   2.342       .  S
In2835     O2843   2.164       .  S
In2835     O2844   2.152       .  S
C2836      O2842   1.280       .  A
C2836      O2844   1.257       .  A
C2836      C2849   1.484       .  S
O2837      C2845   1.273       .  A
O2838      C2845   1.262       .  A
C2839      O2846   1.257       .  A
C2839      O2840   1.283       .  A
C2839      C3707   1.498       .  S
C2841      O2847   1.273       .  A
C2845      C2880   1.441       .  S
In2848     O2851   2.153       .  S
In2848     O2859   2.206       .  S
In2848     O2853   2.281       .  S
In2848     O2855   2.340       .  S
In2848     O2856   2.143       .  S
In2848     O2857   2.155       .  S
In2848     O2860   2.226       .  S
C2849      O2855   1.280       .  A
C2849      O2857   1.258       .  A
O2850      C2858   1.272       .  A
C2852      O2859   1.258       .  A
C2852      O2853   1.279       .  A
C2852      C3690   1.501       .  S
C2854      O2856   1.262       .  A
C2854      O2860   1.269       .  A
C2854      C2871   1.433       .  S
In2861     O2863   2.214       .  S
In2861     O2864   2.133       .  S
In2861     O2872   2.213       .  S
In2861     O2866   2.290       .  S
In2861     O2868   2.328       .  S
In2861     O2869   2.148       .  S
In2861     O2870   2.173       .  S
In2861     O2873   2.207       .  S
C2862      O2868   1.281       .  A
C2862      O2870   1.262       .  A
C2862      C2875   1.489       .  S
O2863      C2871   1.272       .  A
O2864      C2871   1.264       .  A
C2865      O2872   1.264       .  A
C2865      O2866   1.282       .  A
C2865      C3676   1.499       .  S
C2867      O2869   1.263       .  A
C2867      O2873   1.273       .  A
C2867      C2910   1.433       .  S
In2874     O2876   2.223       .  S
In2874     O2877   2.165       .  S
In2874     O2885   2.226       .  S
In2874     O2879   2.310       .  S
In2874     O2881   2.325       .  S
In2874     O2882   2.123       .  S
In2874     O2883   2.172       .  S
In2874     O2886   2.240       .  S
C2875      O2881   1.284       .  A
C2875      O2883   1.264       .  A
O2876      C2884   1.275       .  A
O2877      C2884   1.265       .  A
C2878      O2885   1.264       .  A
C2878      O2879   1.282       .  A
C2878      C3662   1.512       .  S
C2880      O2882   1.265       .  A
C2880      O2886   1.274       .  A
C2884      C2893   1.447       .  S
In2887     O2898   2.173       .  S
In2887     O2892   2.267       .  S
In2887     O2894   2.246       .  S
In2887     O2895   2.193       .  S
In2887     O2896   2.249       .  S
In2887     O2899   2.224       .  S
C2888      O2894   1.257       .  A
C2888      O2896   1.255       .  A
C2888      C2901   1.464       .  S
O2889      C2897   1.264       .  A
O2890      C2897   1.268   1_455  A
C2891      O2898   1.250       .  A
C2891      O2892   1.273       .  A
C2891      C3648   1.461       .  S
C2893      O2895   1.267       .  A
C2893      O2899   1.263       .  A
C2897      C2932   1.450       .  S
In2900     O2902   2.213       .  S
In2900     O2903   2.178       .  S
In2900     O2911   2.189       .  S
In2900     O2905   2.271       .  S
In2900     O2907   2.237       .  S
In2900     O2909   2.261       .  S
C2901      O2907   1.256       .  A
C2901      O2909   1.254       .  A
O2902      C2910   1.261       .  A
O2903      C2910   1.263       .  A
C2904      O2911   1.251       .  A
C2904      O2905   1.268       .  A
C2904      C3634   1.463       .  S
C2906      O2908   1.266       .  A
C2906      O2912   1.267       .  A
C2906      C2923   1.459       .  S
In2913     O2915   2.245       .  S
In2913     O2916   2.207       .  S
In2913     O2924   2.229       .  S
In2913     O2918   2.285       .  S
In2913     O2920   2.241       .  S
In2913     O2922   2.291       .  S
C2914      O2920   1.257       .  A
C2914      O2922   1.264       .  A
C2914      C2927   1.478       .  S
O2915      C2923   1.268       .  A
O2916      C2923   1.262       .  A
C2917      O2924   1.253       .  A
C2917      O2918   1.271       .  A
C2917      C3623   1.496       .  S
C2919      O2921   1.264   1_565  A
C2919      O2925   1.260       .  A
C2919      C2962   1.449       .  S
In2926     O2937   2.257       .  S
In2926     O2931   2.279       .  S
In2926     O2933   2.246       .  S
In2926     O2934   2.203       .  S
In2926     O2935   2.295       .  S
In2926     O2938   2.233       .  S
C2927      O2933   1.256       .  A
C2927      O2935   1.262       .  A
O2928      C2936   1.262       .  A
O2929      C2936   1.264   1_545  A
C2930      O2937   1.253       .  A
C2930      O2931   1.267       .  A
C2930      C3606   1.491       .  S
C2932      O2934   1.260       .  A
C2932      O2938   1.268       .  A
C2936      C2945   1.454       .  S
In2939     O2941   2.218       .  S
In2939     O2942   2.178       .  S
In2939     O2950   2.178       .  S
In2939     O2944   2.249       .  S
In2939     O2946   2.293       .  S
In2939     O2947   2.218       .  S
In2939     O2948   2.135       .  S
In2939     O2951   2.228       .  S
C2940      O2946   1.274       .  A
C2940      O2948   1.258       .  A
C2940      C2953   1.460       .  S
O2941      C2949   1.268       .  A
O2942      C2949   1.266       .  A
C2943      O2950   1.259       .  A
C2943      O2944   1.274       .  A
C2943      C3595   1.458       .  S
C2945      O2947   1.263       .  A
C2945      O2951   1.265       .  A
In2952     O2954   2.214       .  S
In2952     O2955   2.187       .  S
In2952     O2963   2.183       .  S
In2952     O2957   2.256       .  S
In2952     O2959   2.284       .  S
In2952     O2960   2.142       .  S
In2952     O2961   2.128       .  S
In2952     O2964   2.219       .  S
C2953      O2959   1.280       .  A
C2953      O2961   1.262       .  A
O2954      C2962   1.272       .  A
O2955      C2962   1.265       .  A
C2956      O2963   1.262       .  A
C2956      O2957   1.279       .  A
C2956      C3578   1.475       .  S
C2958      O2960   1.266       .  A
C2958      O2964   1.271       .  A
C2965      C2966   1.537       .  S
C2965      C2971   1.509       .  S
C2965      C2969   1.482       .  S
C2965      C3564   1.530       .  S
C2966      H2973   1.084       .  S
C2966      C2967   1.371       .  D
C2967      C2968   1.595       .  S
C2967      C2991   1.511   1_556  S
C2968      C2972   1.597       .  S
C2968      C2970   1.581       .  S
C2968      H2974   1.110   1_556  S
C2969      H2975   1.078       .  S
C2969      C2970   1.362       .  D
C2970      C2982   1.515       .  S
C2971      H2976   1.081       .  S
C2971      C2972   1.378       .  D
C2972      C3068   1.580       .  S
C2977      C2978   1.546       .  S
C2977      C2983   1.528   1_556  S
C2977      C2981   1.527       .  S
C2977      C3550   1.561       .  S
C2978      H2985   1.085       .  S
C2978      C2979   1.388   1_556  D
C2979      C2980   1.611       .  S
C2979      C3051   1.568   1_554  S
C2980      C2984   1.595       .  S
C2980      C2982   1.527   1_554  S
C2980      H2986   1.110       .  S
C2981      H2987   1.083       .  S
C2981      C2982   1.369       .  D
C2983      H2988   1.085       .  S
C2983      C2984   1.367       .  D
C2984      C3008   1.519       .  S
C2989      C2990   1.513       .  S
C2989      C2995   1.550       .  S
C2989      C2993   1.520       .  S
C2989      C3665   1.565       .  S
C2990      H2997   1.086       .  S
C2990      C2991   1.366       .  D
C2991      C2992   1.617       .  S
C2992      C2996   1.604       .  S
C2992      C2994   1.551       .  S
C2992      H2998   1.110       .  S
C2993      H2999   1.080       .  S
C2993      C2994   1.371       .  D
C2994      C3006   1.547       .  S
C2995      H3000   1.085       .  S
C2995      C2996   1.392       .  D
C2996      C3020   1.580       .  S
C3001      C3002   1.508       .  S
C3001      C3007   1.541       .  S
C3001      C3005   1.530       .  S
C3001      C3592   1.534       .  S
C3002      H3009   1.080       .  S
C3002      C3003   1.378       .  D
C3003      C3004   1.620       .  S
C3003      C3087   1.576       .  S
C3004      C3008   1.599       .  S
C3004      C3006   1.568       .  S
C3004      H3010   1.110       .  S
C3005      H3011   1.086       .  S
C3005      C3006   1.357       .  D
C3007      H3012   1.084       .  S
C3007      C3008   1.370       .  D
C3013      C3014   1.536       .  S
C3013      C3019   1.473       .  S
C3013      C3017   1.595       .  S
C3013      C3651   1.534       .  S
C3014      H3021   1.086       .  S
C3014      C3015   1.354       .  D
C3015      C3016   1.611       .  S
C3015      C3030   1.583       .  S
C3016      C3020   1.651       .  S
C3016      C3018   1.557       .  S
C3016      H3022   1.107       .  S
C3017      H3023   1.080       .  S
C3017      C3018   1.369       .  D
C3019      H3024   1.083       .  S
C3019      C3020   1.370       .  D
C3025      C3026   1.517       .  S
C3025      C3031   1.530       .  S
C3025      C3029   1.513       .  S
C3025      C3721   1.574       .  S
C3026      C3027   1.378       .  D
C3027      C3028   1.614       .  S
C3028      C3032   1.569       .  S
C3028      C3030   1.594       .  S
C3028      H3034   1.110       .  S
C3029      H3035   1.080       .  S
C3029      C3030   1.391       .  D
C3031      H3036   1.078       .  S
C3031      C3032   1.379       .  D
C3032      C3099   1.562       .  S
C3037      C3038   1.516       .  S
C3037      C3043   1.538       .  S
C3037      C3539   1.572   1_655  S
C3038      H3045   1.080   1_655  S
C3038      C3039   1.391   1_556  D
C3039      C3040   1.578       .  S
C3039      C3056   1.569   1_554  S
C3040      C3044   1.565   1_554  S
C3040      C3042   1.616   1_655  S
C3040      H3046   1.110       .  S
C3041      H3047   1.082       .  S
C3043      H3048   1.080       .  S
C3043      C3044   1.380       .  D
C3044      C3080   1.561   1_556  S
C3049      C3050   1.484       .  S
C3049      C3055   1.530       .  S
C3049      C3053   1.605       .  S
C3049      C3522   1.548       .  S
C3050      H3057   1.078       .  S
C3050      C3051   1.377       .  D
C3051      C3052   1.624   1_556  S
C3052      C3056   1.595   1_554  S
C3052      C3054   1.540       .  S
C3052      H3058   1.106       .  S
C3053      C3054   1.375   1_556  D
C3055      H3060   1.090       .  S
C3055      C3056   1.353       .  D
C3061      C3062   1.526       .  S
C3061      C3067   1.505       .  S
C3061      C3065   1.515       .  S
C3061      C3511   1.548       .  S
C3062      H3069   1.078       .  S
C3062      C3063   1.377       .  D
C3063      C3064   1.560       .  S
C3063      C3078   1.563       .  S
C3064      C3068   1.622       .  S
C3064      C3066   1.594   1_556  S
C3064      H3070   1.109   1_556  S
C3065      H3071   1.075       .  S
C3065      C3066   1.367   1_556  D
C3066      C3104   1.493       .  S
C3067      H3072   1.085       .  S
C3067      C3068   1.377       .  D
C3073      C3074   1.536       .  S
C3073      C3079   1.526       .  S
C3073      C3077   1.529       .  S
C3073      C3497   1.551       .  S
C3074      H3081   1.081       .  S
C3074      C3075   1.376   1_556  D
C3075      C3076   1.593       .  S
C3075      C3090   1.546       .  S
C3076      C3080   1.626       .  S
C3076      C3078   1.582   1_554  S
C3076      H3082   1.109       .  S
C3077      H3083   1.086       .  S
C3077      C3078   1.355       .  D
C3079      H3084   1.084       .  S
C3079      C3080   1.383   1_556  D
C3085      C3086   1.495       .  S
C3085      C3091   1.536       .  S
C3085      C3609   1.552   1_565  S
C3086      H3093   1.075       .  S
C3086      C3087   1.396       .  D
C3087      C3088   1.629       .  S
C3088      C3092   1.593       .  S
C3088      H3094   1.105       .  S
C3089      H3095   1.084       .  S
C3089      C3090   1.379       .  D
C3091      H3096   1.087       .  S
C3091      C3092   1.340       .  D
C3092      C3102   1.566       .  S
C3097      C3103   1.519       .  S
C3097      C3704   1.559       .  S
C3098      H3105   1.084       .  S
C3098      C3099   1.376       .  D
C3099      C3100   1.606       .  S
C3100      C3102   1.554       .  S
C3100      H3106   1.109       .  S
C3101      H3107   1.074       .  S
C3101      C3102   1.379       .  D
C3103      H3108   1.084       .  S
C3103      C3104   1.373       .  D
C3109      C3110   1.509       .  S
C3109      C3115   1.486       .  S
C3109      C3113   1.535       .  S
C3109      C3480   1.555       .  S
C3110      H3117   1.079       .  S
C3110      C3111   1.392       .  D
C3111      C3112   1.598       .  S
C3111      C3164   1.579       .  S
C3112      C3116   1.584       .  S
C3112      C3114   1.570       .  S
C3112      H3118   1.109       .  S
C3113      H3119   1.080       .  S
C3113      C3114   1.362       .  D
C3114      C3147   1.489       .  S
C3115      H3120   1.080       .  S
C3115      C3116   1.381       .  D
C3116      C3126   1.558       .  S
C3121      C3122   1.516       .  S
C3121      C3127   1.553       .  S
C3121      C3125   1.535       .  S
C3121      C3466   1.555       .  S
C3122      H3129   1.085       .  S
C3122      C3123   1.384       .  D
C3123      C3124   1.631       .  S
C3123      C3236   1.555       .  S
C3124      C3128   1.580       .  S
C3124      C3126   1.575       .  S
C3124      H3130   1.108       .  S
C3125      H3131   1.088       .  S
C3125      C3126   1.355       .  D
C3127      H3132   1.081       .  S
C3127      C3128   1.376       .  D
C3128      C3138   1.543       .  S
C3133      C3134   1.538       .  S
C3133      C3139   1.487       .  S
C3133      C3620   1.553   1_565  S
C3134      H3141   1.080       .  S
C3134      C3135   1.341       .  D
C3135      C3136   1.611       .  S
C3135      C3150   1.577       .  S
C3136      C3140   1.635       .  S
C3136      H3142   1.106       .  S
C3137      H3143   1.083       .  S
C3137      C3138   1.375       .  D
C3139      H3144   1.083       .  S
C3139      C3140   1.385       .  D
C3140      C3200   1.574       .  S
C3145      C3146   1.515       .  S
C3145      C3693   1.553       .  S
C3146      H3153   1.085       .  S
C3146      C3147   1.367       .  D
C3148      C3152   1.610       .  S
C3148      C3150   1.556       .  S
C3148      H3154   1.109       .  S
C3149      H3155   1.077       .  S
C3149      C3150   1.387       .  D
C3151      H3156   1.082       .  S
C3151      C3152   1.372       .  D
C3152      C3219   1.570       .  S
C3157      C3158   1.555       .  S
C3157      C3163   1.541       .  S
C3157      C3161   1.499       .  S
C3157      C3455   1.538       .  S
C3158      H3165   1.080       .  S
C3158      C3159   1.373       .  D
C3159      C3160   1.536       .  S
C3159      C3174   1.523       .  S
C3160      C3164   1.601       .  S
C3160      C3162   1.621       .  S
C3160      H3166   1.109       .  S
C3161      H3167   1.087       .  S
C3161      C3162   1.359       .  D
C3162      C3188   1.506       .  S
C3163      H3168   1.074       .  S
C3163      C3164   1.365       .  D
C3169      C3170   1.530       .  S
C3169      C3175   1.549       .  S
C3169      C3173   1.542       .  S
C3169      C3438   1.559       .  S
C3170      H3177   1.086       .  S
C3170      C3171   1.366       .  D
C3171      C3172   1.601       .  S
C3171      C3195   1.510       .  S
C3172      C3176   1.599       .  S
C3172      C3174   1.546       .  S
C3172      H3178   1.109       .  S
C3173      H3179   1.082       .  S
C3173      C3174   1.365       .  D
C3175      H3180   1.078       .  S
C3175      C3176   1.384       .  D
C3176      C3248   1.581       .  S
C3181      C3182   1.551       .  S
C3181      C3187   1.531       .  S
C3181      C3185   1.539       .  S
C3181      C3679   1.561       .  S
C3182      H3189   1.079       .  S
C3182      C3183   1.386       .  D
C3183      C3184   1.595       .  S
C3183      C3212   1.577       .  S
C3184      C3188   1.600       .  S
C3184      C3186   1.536       .  S
C3184      H3190   1.109       .  S
C3185      H3191   1.082       .  S
C3185      C3186   1.369       .  D
C3186      C3198   1.518       .  S
C3187      H3192   1.086       .  S
C3187      C3188   1.364       .  D
C3193      C3194   1.509       .  S
C3193      C3199   1.543       .  S
C3193      C3197   1.533       .  S
C3193      C3581   1.538       .  S
C3194      H3201   1.087       .  S
C3194      C3195   1.360       .  D
C3195      C3196   1.613       .  S
C3196      C3200   1.597       .  S
C3196      C3198   1.546       .  S
C3196      H3202   1.109       .  S
C3197      H3203   1.080       .  S
C3197      C3198   1.363       .  D
C3199      H3204   1.084       .  S
C3199      C3200   1.382       .  D
C3205      C3206   1.603       .  S
C3205      C3211   1.483       .  S
C3205      C3209   1.531       .  S
C3205      C3637   1.543       .  S
C3206      H3213   1.075       .  S
C3206      C3207   1.370       .  D
C3207      C3208   1.546       .  S
C3208      C3212   1.639       .  S
C3208      C3210   1.607       .  S
C3208      H3214   1.105       .  S
C3209      H3215   1.086       .  S
C3209      C3210   1.354       .  D
C3210      C3222   1.576       .  S
C3211      H3216   1.085       .  S
C3211      C3212   1.370       .  D
C3217      C3218   1.533       .  S
C3217      C3223   1.522       .  S
C3217      C3221   1.516       .  S
C3217      C3735   1.583       .  S
C3218      H3225   1.080       .  S
C3218      C3219   1.377       .  D
C3219      C3220   1.571       .  S
C3220      C3224   1.626       .  S
C3220      C3222   1.591       .  S
C3220      H3226   1.109       .  S
C3221      H3227   1.077       .  S
C3221      C3222   1.388       .  D
C3223      C3224   1.390       .  D
C3229      C3235   1.531       .  S
C3229      C3233   1.542       .  S
C3229      C3427   1.590   1_655  S
C3230      H3237   1.083       .  S
C3231      C3232   1.624   1_455  S
C3232      C3236   1.561       .  S
C3232      C3234   1.581       .  S
C3232      H3238   1.110       .  S
C3233      H3239   1.059   1_655  S
C3233      C3234   1.390       .  D
C3234      C3243   1.583       .  S
C3235      H3240   1.081       .  S
C3235      C3236   1.384       .  D
C3241      C3242   1.539       .  S
C3241      C3247   1.483       .  S
C3241      C3245   1.593       .  S
C3241      C3410   1.545       .  S
C3242      H3249   1.071       .  S
C3242      C3243   1.355       .  D
C3243      C3244   1.607       .  S
C3244      C3248   1.642       .  S
C3244      C3246   1.547       .  S
C3244      H3250   1.105       .  S
C3245      C3246   1.375       .  D
C3247      H3252   1.088       .  S
C3247      C3248   1.368       .  D
In3253     O3255   2.238       .  S
In3253     O3256   2.199       .  S
In3253     O3264   2.158       .  S
In3253     O3260   2.228       .  S
In3253     O3262   2.246       .  S
C3254      O3260   1.256       .  A
C3254      O3262   1.258       .  A
C3254      C3267   1.456       .  S
O3255      C3263   1.268       .  A
O3256      C3263   1.263       .  A
C3257      O3258   1.269       .  A
C3257      C3413   1.475       .  S
C3259      O3261   1.261       .  A
C3259      O3265   1.262       .  A
C3259      C3393   1.439       .  S
C3263      C3285   1.453       .  S
In3266     O3268   2.229       .  S
In3266     O3269   2.193       .  S
In3266     O3277   2.205   1_655  S
In3266     O3271   2.281       .  S
In3266     O3273   2.257       .  S
C3267      O3275   1.255       .  A
O3268      C3276   1.260       .  A
O3269      C3276   1.259       .  A
C3270      O3277   1.249   1_655  A
C3270      O3271   1.268       .  A
C3270      C3525   1.484       .  S
C3272      O3274   1.266       .  A
C3272      O3278   1.266       .  A
C3272      C3302   1.450       .  S
C3276      C3402   1.440       .  S
In3279     O3281   2.218       .  S
In3279     O3282   2.226       .  S
In3279     O3290   2.234       .  S
In3279     O3284   2.257       .  S
In3279     O3286   2.291       .  S
In3279     O3288   2.215       .  S
C3280      O3286   1.263       .  A
C3280      O3288   1.254       .  A
C3280      C3293   1.468       .  S
O3281      C3289   1.259       .  A
O3282      C3289   1.262       .  A
C3283      O3290   1.254       .  A
C3283      O3284   1.264       .  A
C3283      C3483   1.477       .  S
C3285      O3287   1.265       .  A
C3285      O3291   1.268       .  A
C3289      C3311   1.447       .  S
In3292     O3303   2.229       .  S
In3292     O3297   2.268       .  S
In3292     O3299   2.295       .  S
In3292     O3300   2.230       .  S
In3292     O3301   2.226       .  S
In3292     O3304   2.230       .  S
C3293      O3299   1.261       .  A
C3293      O3301   1.253       .  A
O3294      C3302   1.267       .  A
O3295      C3302   1.264       .  A
C3296      O3303   1.251       .  A
C3296      O3297   1.266       .  A
C3296      C3508   1.475       .  S
C3298      O3300   1.263       .  A
C3298      O3304   1.261       .  A
C3298      C3328   1.454       .  S
In3305     O3307   2.187       .  S
In3305     O3308   2.181       .  S
In3305     O3316   2.182       .  S
In3305     O3310   2.230       .  S
In3305     O3312   2.274       .  S
In3305     O3313   2.192       .  S
In3305     O3314   2.131       .  S
In3305     O3317   2.202       .  S
C3306      O3312   1.277       .  A
C3306      O3314   1.263       .  A
C3306      C3319   1.456       .  S
O3307      C3315   1.268       .  A
O3308      C3315   1.269       .  A
C3309      O3316   1.265       .  A
C3309      O3310   1.276       .  A
C3309      C3452   1.469       .  S
C3311      O3313   1.267       .  A
C3311      O3317   1.270       .  A
C3315      C3337   1.438       .  S
In3318     O3320   2.220       .  S
In3318     O3321   2.213       .  S
In3318     O3329   2.176       .  S
In3318     O3323   2.227       .  S
In3318     O3325   2.283       .  S
In3318     O3326   2.193       .  S
In3318     O3327   2.136       .  S
In3318     O3330   2.208       .  S
C3319      O3325   1.273       .  A
C3319      O3327   1.259       .  A
O3320      C3328   1.266       .  A
O3321      C3328   1.265       .  A
C3322      O3329   1.261       .  A
C3322      O3323   1.275       .  A
C3322      C3567   1.458       .  S
C3324      O3326   1.267       .  A
C3324      O3330   1.266       .  A
C3324      C3354   1.444       .  S
In3331     O3342   2.221       .  S
In3331     O3336   2.337       .  S
In3331     O3338   2.328       .  S
In3331     O3339   2.193       .  S
In3331     O3340   2.279       .  S
In3331     O3343   2.203       .  S
C3332      O3338   1.262       .  A
C3332      O3340   1.260       .  A
C3332      C3345   1.504       .  S
O3333      C3341   1.268       .  A
O3334      C3341   1.258       .  A
C3335      O3342   1.254       .  A
C3335      O3336   1.279       .  A
C3335      C3424   1.515       .  S
C3337      O3339   1.262       .  A
C3337      O3343   1.265       .  A
C3341      C3363   1.450       .  S
In3344     O3346   2.214       .  S
In3344     O3347   2.196       .  S
In3344     O3355   2.266       .  S
In3344     O3349   2.327       .  S
In3344     O3351   2.331       .  S
In3344     O3353   2.275       .  S
C3345      O3351   1.265       .  A
C3345      O3353   1.257       .  A
O3346      C3354   1.267       .  A
O3347      C3354   1.263       .  A
C3348      O3355   1.255       .  A
C3348      O3349   1.275       .  A
C3348      C3536   1.507       .  S
C3350      O3352   1.261       .  A
C3350      O3356   1.263       .  A
C3350      C3380   1.451       .  S
In3357     O3368   2.317       .  S
In3357     O3362   2.268       .  S
In3357     O3364   2.282       .  S
In3357     O3365   2.190       .  S
In3357     O3366   2.321       .  S
In3357     O3369   2.253       .  S
C3358      O3364   1.254       .  A
C3358      O3366   1.259       .  A
C3358      C3371   1.498       .  S
O3359      C3367   1.263       .  A
O3360      C3367   1.264   1_545  A
C3361      O3368   1.260       .  A
C3361      O3362   1.255       .  A
C3361      C3469   1.508       .  S
C3363      O3365   1.264       .  A
C3363      O3369   1.267       .  A
C3367      C3389   1.448       .  S
In3370     O3372   2.246       .  S
In3370     O3373   2.186       .  S
In3370     O3381   2.194       .  S
In3370     O3375   2.331       .  S
In3370     O3377   2.274       .  S
In3370     O3379   2.313       .  S
C3371      O3377   1.259       .  A
C3371      O3379   1.265       .  A
O3372      C3380   1.269       .  A
O3373      C3380   1.262       .  A
C3374      O3381   1.249       .  A
C3374      O3375   1.281       .  A
C3374      C3494   1.507       .  S
C3376      O3378   1.261   1_565  A
C3376      O3382   1.261       .  A
C3376      C3406   1.442       .  S
In3383     O3385   2.185       .  S
In3383     O3386   2.157       .  S
In3383     O3394   2.227       .  S
In3383     O3388   2.274       .  S
In3383     O3390   2.282       .  S
In3383     O3391   2.177       .  S
In3383     O3392   2.213       .  S
In3383     O3395   2.202       .  S
C3384      O3390   1.280       .  A
C3384      O3392   1.269       .  A
C3384      C3397   1.488       .  S
O3385      C3393   1.275       .  A
O3386      C3393   1.273       .  A
C3387      O3394   1.270       .  A
C3387      O3388   1.280       .  A
C3387      C3441   1.504       .  S
C3389      O3391   1.270       .  A
C3389      O3395   1.273       .  A
In3396     O3398   2.188       .  S
In3396     O3399   2.156       .  S
In3396     O3407   2.257       .  S
In3396     O3401   2.271       .  S
In3396     O3403   2.276       .  S
In3396     O3404   2.151       .  S
In3396     O3405   2.216       .  S
In3396     O3408   2.193       .  S
C3397      O3403   1.281       .  A
C3397      O3405   1.273       .  A
O3398      C3406   1.276       .  A
O3399      C3406   1.273       .  A
C3400      O3407   1.271       .  A
C3400      O3401   1.278       .  A
C3400      C3553   1.508       .  S
C3402      O3404   1.272       .  A
C3402      O3408   1.276       .  A
C3409      C3410   1.422       .  A
C3409      C3414   1.401       .  A
C3409      H3416   1.072       .  S
C3410      C3411   1.425       .  A
C3411      C3412   1.392       .  A
C3411      N3418   1.433       .  S
C3412      C3413   1.402       .  A
C3413      C3414   1.397       .  A
C3414      N3415   1.431       .  S
N3415      H3419   1.045       .  S
N3415      H3420   1.044       .  S
N3418      H3421   1.038       .  S
C3423      C3424   1.411       .  A
C3423      C3428   1.408       .  A
C3423      H3430   1.084       .  S
C3425      C3426   1.426       .  A
C3425      N3432   1.438       .  S
C3426      C3427   1.429       .  A
C3426      H3431   1.072       .  S
C3428      N3429   1.434       .  S
N3429      H3433   1.045       .  S
N3429      H3434   1.040       .  S
N3432      H3435   1.041       .  S
N3432      H3436   1.045       .  S
C3437      C3438   1.412       .  A
C3437      C3442   1.415       .  A
C3437      H3444   1.073       .  S
C3438      C3439   1.422       .  A
C3439      C3440   1.413       .  A
C3439      N3446   1.431       .  S
C3440      C3441   1.402       .  A
C3440      H3445   1.084       .  S
C3441      C3442   1.418       .  A
C3442      N3443   1.439       .  S
N3443      H3447   1.045       .  S
N3443      H3448   1.046       .  S
N3446      H3449   1.046       .  S
N3446      H3450   1.043       .  S
C3451      C3452   1.399       .  A
C3451      C3456   1.398       .  A
C3451      H3458   1.084       .  S
C3452      C3453   1.405       .  A
C3453      C3454   1.406       .  A
C3453      N3460   1.437       .  S
C3454      C3455   1.414       .  A
C3454      H3459   1.083       .  S
C3455      C3456   1.417       .  A
C3456      N3457   1.429       .  S
N3457      H3461   1.046       .  S
N3457      H3462   1.046       .  S
N3460      H3463   1.047       .  S
N3460      H3464   1.044       .  S
C3465      C3466   1.411       .  A
C3465      C3470   1.412       .  A
C3465      H3472   1.078       .  S
C3466      C3467   1.426       .  A
C3467      C3468   1.419       .  A
C3467      N3474   1.429       .  S
C3468      C3469   1.404       .  A
C3468      H3473   1.083       .  S
C3469      C3470   1.418       .  A
C3470      N3471   1.438       .  S
N3471      H3475   1.046       .  S
N3471      H3476   1.045       .  S
N3474      H3477   1.041       .  S
N3474      H3478   1.046       .  S
C3479      C3480   1.418       .  A
C3479      C3484   1.404       .  A
C3479      H3486   1.076       .  S
C3480      C3481   1.433       .  A
C3481      C3482   1.398       .  A
C3481      N3488   1.435       .  S
C3482      C3483   1.397       .  A
C3482      H3487   1.085       .  S
C3483      C3484   1.407       .  A
C3484      N3485   1.432       .  S
N3485      H3490   1.046       .  S
N3488      H3491   1.043       .  S
N3488      H3492   1.043       .  S
C3493      C3494   1.401       .  A
C3493      C3498   1.410       .  A
C3493      H3500   1.083       .  S
C3494      C3495   1.430       .  A
C3495      C3496   1.405       .  A
C3495      N3502   1.433       .  S
C3496      C3497   1.406       .  A
C3496      H3501   1.079       .  S
C3497      C3498   1.432       .  A
C3498      N3499   1.432       .  S
N3499      H3503   1.040       .  S
N3499      H3504   1.044       .  S
N3502      H3505   1.044       .  S
N3502      H3506   1.046       .  S
C3507      C3508   1.404       .  A
C3507      C3512   1.413       .  A
C3507      H3514   1.084       .  S
C3508      C3509   1.404       .  A
C3509      C3510   1.399       .  A
C3509      N3516   1.439       .  S
C3510      C3511   1.414       .  A
C3510      H3515   1.084       .  S
C3511      C3512   1.422       .  A
C3512      N3513   1.429       .  S
N3513      H3518   1.046       .  S
N3516      H3519   1.045       .  S
N3516      H3520   1.046       .  S
C3521      C3522   1.411       .  A
C3521      C3526   1.397   1_655  A
C3521      H3528   1.075   1_655  S
C3522      C3523   1.434       .  A
C3523      C3524   1.401       .  A
C3523      N3530   1.436       .  S
C3524      C3525   1.399       .  A
C3524      H3529   1.084       .  S
C3525      C3526   1.416   1_655  A
C3526      N3527   1.434       .  S
N3527      H3531   1.043       .  S
N3530      H3533   1.042       .  S
N3530      H3534   1.041       .  S
C3535      C3536   1.413       .  A
C3535      C3540   1.427       .  A
C3535      H3542   1.083       .  S
C3537      C3538   1.403       .  A
C3537      N3544   1.440       .  S
C3538      C3539   1.418   1_655  A
C3538      H3543   1.079       .  S
C3540      N3541   1.430       .  S
N3541      H3545   1.046       .  S
N3541      H3546   1.045       .  S
N3544      H3547   1.038       .  S
N3544      H3548   1.045       .  S
C3549      C3550   1.416       .  A
C3549      C3554   1.414       .  A
C3549      H3556   1.080       .  S
C3550      C3551   1.429       .  A
C3551      C3552   1.414       .  A
C3551      N3558   1.432       .  S
C3552      C3553   1.402       .  A
C3552      H3557   1.084       .  S
C3553      C3554   1.418       .  A
C3554      N3555   1.432       .  S
N3555      H3559   1.045       .  S
N3555      H3560   1.045       .  S
N3558      H3561   1.046       .  S
N3558      H3562   1.046       .  S
C3563      C3564   1.405       .  A
C3563      C3568   1.403       .  A
C3563      H3570   1.080       .  S
C3564      C3565   1.429       .  A
C3565      C3566   1.388       .  A
C3565      N3572   1.436       .  S
C3566      C3567   1.387       .  A
C3566      H3571   1.085       .  S
C3567      C3568   1.416       .  A
C3568      N3569   1.433       .  S
N3569      H3573   1.043       .  S
N3569      H3574   1.046       .  S
N3572      H3575   1.045       .  S
N3572      H3576   1.046       .  S
C3577      C3578   1.397       .  A
C3577      C3582   1.407       .  A
C3577      H3584   1.084       .  S
C3578      C3579   1.407       .  A
C3579      C3580   1.402       .  A
C3579      N3586   1.434       .  S
C3580      C3581   1.410       .  A
C3580      H3585   1.077       .  S
C3581      C3582   1.426       .  A
C3582      N3583   1.432       .  S
N3583      H3587   1.045       .  S
N3583      H3588   1.044       .  S
N3586      H3589   1.045       .  S
N3586      H3590   1.046       .  S
C3591      C3592   1.412       .  A
C3591      C3596   1.413       .  A
C3591      H3598   1.079       .  S
C3592      C3593   1.424       .  A
C3593      C3594   1.391       .  A
C3593      N3600   1.432       .  S
C3594      C3595   1.387       .  A
C3594      H3599   1.085       .  S
C3595      C3596   1.407       .  A
C3596      N3597   1.437       .  S
N3597      H3601   1.045       .  S
N3597      H3602   1.045       .  S
N3600      H3603   1.046       .  S
N3600      H3604   1.045       .  S
C3605      C3610   1.398   1_545  A
C3605      H3612   1.084       .  S
C3606      C3607   1.411       .  A
C3607      C3608   1.415       .  A
C3607      N3614   1.430       .  S
C3608      H3613   1.083       .  S
C3609      C3610   1.436   1_545  A
C3610      N3611   1.432       .  S
N3611      H3615   1.046       .  S
N3611      H3616   1.046       .  S
N3614      H3617   1.046       .  S
N3614      H3618   1.045       .  S
C3619      C3620   1.421   1_565  A
C3619      C3624   1.403   1_565  A
C3619      H3626   1.069       .  S
C3621      C3622   1.412       .  A
C3621      N3628   1.433       .  S
C3622      C3623   1.412       .  A
C3622      H3627   1.084       .  S
C3624      N3625   1.439   1_545  S
N3625      H3629   1.046       .  S
N3625      H3630   1.046       .  S
N3628      H3631   1.043       .  S
N3628      H3632   1.042       .  S
C3633      C3634   1.395       .  A
C3633      C3638   1.398       .  A
C3634      C3635   1.402       .  A
C3635      C3636   1.404       .  A
C3635      N3642   1.438       .  S
C3636      C3637   1.418       .  A
C3636      H3641   1.084       .  S
C3637      C3638   1.421       .  A
N3639      H3643   1.046       .  S
N3642      H3645   1.046       .  S
N3642      H3646   1.046       .  S
C3647      C3648   1.395       .  A
C3647      C3652   1.401       .  A
C3647      H3654   1.084       .  S
C3648      C3649   1.409       .  A
C3649      C3650   1.394       .  A
C3650      C3651   1.410       .  A
C3650      H3655   1.075       .  S
C3651      C3652   1.424       .  A
C3652      N3653   1.434       .  S
N3653      H3657   1.046       .  S
N3653      H3658   1.045       .  S
N3656      H3659   1.042       .  S
N3656      H3660   1.045       .  S
C3661      C3662   1.405       .  A
C3661      C3666   1.422       .  A
C3661      H3668   1.084       .  S
C3662      C3663   1.419       .  A
C3663      C3664   1.409       .  A
C3663      N3670   1.433       .  S
C3664      C3665   1.414       .  A
C3664      H3669   1.078       .  S
C3665      C3666   1.430       .  A
C3666      N3667   1.431       .  S
N3667      H3671   1.046       .  S
N3667      H3672   1.045       .  S
N3670      H3673   1.046       .  S
N3670      H3674   1.044       .  S
C3675      C3676   1.405       .  A
C3675      C3680   1.410       .  A
C3675      H3682   1.084       .  S
C3676      C3677   1.407       .  A
C3677      C3678   1.417       .  A
C3677      N3684   1.437       .  S
C3678      C3679   1.421       .  A
C3678      H3683   1.081       .  S
C3679      C3680   1.424       .  A
C3680      N3681   1.428       .  S
N3681      H3685   1.046       .  S
N3681      H3686   1.046       .  S
N3684      H3687   1.046       .  S
N3684      H3688   1.045       .  S
C3689      C3690   1.402       .  A
C3689      C3694   1.417       .  A
C3689      H3696   1.083       .  S
C3690      C3691   1.420       .  A
C3692      H3697   1.076   1_545  S
C3693      C3694   1.428       .  A
C3694      N3695   1.438       .  S
N3695      H3699   1.046       .  S
N3695      H3700   1.042       .  S
N3698      H3701   1.045       .  S
N3698      H3702   1.045   1_565  S
C3703      C3704   1.411       .  A
C3703      C3708   1.397       .  A
C3704      C3705   1.431       .  A
C3705      C3706   1.413       .  A
C3705      N3712   1.431       .  S
C3706      C3707   1.403       .  A
C3706      H3711   1.083       .  S
C3707      C3708   1.420       .  A
C3708      N3709   1.435       .  S
N3709      H3713   1.045       .  S
N3709      H3714   1.046       .  S
N3712      H3715   1.044       .  S
N3712      H3716   1.042       .  S
C3717      C3718   1.396       .  A
C3717      C3722   1.410       .  A
C3717      H3724   1.084       .  S
C3718      C3719   1.417       .  A
C3719      C3720   1.427       .  A
C3720      C3721   1.416       .  A
C3720      H3725   1.081       .  S
C3721      C3722   1.432       .  A
C3722      N3723   1.431       .  S
N3723      H3727   1.037       .  S
N3723      H3728   1.046       .  S
N3726      H3729   1.046       .  S
N3726      H3730   1.045       .  S
C3731      H3738   1.083       .  S
C3732      C3733   1.403       .  A
C3733      C3734   1.406       .  A
C3733      N3740   1.440       .  S
C3734      C3735   1.424       .  A
C3734      H3739   1.078       .  S
C3735      C3736   1.425       .  A
N3737      H3741   1.045       .  S
N3737      H3742   1.046       .  S
N3740      H3743   1.039       .  S
N3740      H3744   1.046       .  S
