geometry optimzed in LAMMPS
_audit_creation_date              2020-11-30 
_audit_creation_method            'lammps2cif' 
_symmetry_space_group_name_H-M    'P1' 
_symmetry_Int_Tables_number       1 
_symmetry_cell_setting            triclinic 
loop_ 
_symmetry_equiv_pos_as_xyz 
  x,y,z 
_cell_length_a                    53.45670136 
_cell_length_b                    53.55299094397072 
_cell_length_c                    73.66179277545959 
_cell_angle_alpha                 89.71388835473415 
_cell_angle_beta                  90.30676951071334 
_cell_angle_gamma                 125.34431494517325 
loop_ 
_atom_site_label 
_atom_site_type_symbol 
_atom_site_fract_x 
_atom_site_fract_y 
_atom_site_fract_z 
_atom_site_charge 
O1          O  0.00005207  0.71415108  0.23118767    -0.58000
C2          C  0.99859857  0.72937178  0.28549247     0.74700
O3          O  0.04785653  0.78482785  0.24868818    -0.59100
C4          C  0.99679324  0.72294834  0.21594826     0.74600
C5          C  0.93478063  0.74101197  0.25032158     0.77000
Cd6        Cd  0.99212880  0.74757856  0.24974804     1.37500
O7          O  0.99202058  0.71222131  0.27185678    -0.57900
O8          O  0.93588562  0.71879156  0.25484708    -0.56800
C9          C  0.04789987  0.80844475  0.24884062     0.77000
O10         O  0.95978077  0.76526015  0.24543921    -0.59100
O11         O  0.00078608  0.75384292  0.28256906    -0.57600
O12         O  0.98900709  0.74117070  0.21646718    -0.57600
O13         O  0.02185954  0.80378722  0.24908225    -0.56700
O14         O  0.32666638  0.07806859  0.28668985    -0.58000
C15         C  0.33693478  0.05090202  0.22352816     0.74700
O16         O  0.26632793  0.02268610  0.26989108    -0.59100
C17         C  0.33760878  0.06283960  0.28948337     0.74600
C18         C  0.31920016  0.12078735  0.25029229     0.77000
Cd19       Cd  0.31308329  0.06390038  0.25458308     1.37500
O20         O  0.31809762  0.03040018  0.23448224    -0.57900
O21         O  0.34163606  0.12022009  0.25513203    -0.56800
C22         C  0.24895314  0.01468602  0.25619699     0.77000
O23         O  0.29431170  0.09515477  0.24694117    -0.59100
O24         O  0.34669277  0.07804276  0.22768059    -0.57600
O25         O  0.33914981  0.04972581  0.27572201    -0.57600
O26         O  0.26101819  0.03055515  0.24198839    -0.56700
O27         O  0.34275354  0.39349005  0.22026428    -0.58000
C28         C  0.33277155  0.38312611  0.27901245     0.74700
O29         O  0.25068467  0.32531327  0.24464129    -0.59100
C30         C  0.32365045  0.37984855  0.20735325     0.74600
C31         C  0.31335327  0.30526542  0.24338216     0.77000
Cd32       Cd  0.30738998  0.35535083  0.24395266     1.37500
O33         O  0.34093420  0.39953055  0.26478764    -0.57900
O34         O  0.33567550  0.33224351  0.23929598    -0.56800
C35         C  0.24996561  0.34817859  0.24761345     0.77000
O36         O  0.28841565  0.30162191  0.24739733    -0.59100
O37         O  0.31516949  0.35452814  0.27662024    -0.57600
O38         O  0.29831485  0.35531758  0.21157312    -0.57600
O39         O  0.27566318  0.37383684  0.24884253    -0.56700
O40         O  0.98444419  0.31664868  0.26579650    -0.58000
C41         C  0.06701965  0.35564040  0.25806249     0.74700
O42         O  0.03578077  0.41293266  0.23748419    -0.59100
C43         C  0.96150310  0.31638458  0.26102611     0.74600
C44         C  0.04051866  0.40895279  0.29133314     0.77000
Cd45       Cd  0.02326986  0.37088962  0.25917665     1.37500
O46         O  0.04861079  0.34724423  0.27119956    -0.57900
O47         O  0.01260225  0.38951615  0.28723458    -0.56800
C48         C  0.02724878  0.39604538  0.22351196     0.77000
O49         O  0.05964888  0.41254804  0.27971491    -0.59100
O50         O  0.06441444  0.37008344  0.24545875    -0.57600
O51         O  0.96707228  0.34182110  0.25612084    -0.57600
O52         O  0.01629729  0.36824800  0.22639730    -0.56700
O53         O  0.76170185  0.08470045  0.24234725    -0.58000
C54         C  0.72093266  0.00560956  0.24042866     0.74700
O55         O  0.66701312  0.01535778  0.26412871    -0.59100
C56         C  0.76226092  0.10824950  0.24545519     0.74600
C57         C  0.67326595  0.04049377  0.20671157     0.77000
Cd58       Cd  0.70532593  0.04867519  0.24072847     1.37500
O59         O  0.71600849  0.01464593  0.25492412    -0.57900
O60         O  0.69802712  0.06554790  0.21095592    -0.56800
C61         C  0.67047309  0.03654001  0.27383655     0.77000
O62         O  0.66193452  0.01992993  0.21881332    -0.59100
O63         O  0.72122747  0.01859756  0.22595643    -0.57600
O64         O  0.73644514  0.10413655  0.24583525    -0.57600
O65         O  0.68826936  0.06330143  0.26746418    -0.56700
O66         O  0.66214157  0.72182809  0.28107897    -0.58000
C67         C  0.68349744  0.74040922  0.22143928     0.74700
O68         O  0.73360270  0.81222822  0.25753913    -0.59100
C69         C  0.67531837  0.74128310  0.29382955     0.74600
C70         C  0.75125686  0.74801304  0.26030286     0.77000
Cd71       Cd  0.70320345  0.75660412  0.25842589     1.37500
O72         O  0.66592943  0.72264774  0.23408098    -0.57900
O73         O  0.72339784  0.72564519  0.25869395    -0.56800
C74         C  0.71116370  0.81358622  0.25400843     0.77000
O75         O  0.75653819  0.77423151  0.26170155    -0.59100
O76         O  0.70941476  0.76354764  0.22628107    -0.57600
O77         O  0.70060404  0.76609584  0.28998967    -0.57600
O78         O  0.68494000  0.78828356  0.25314084    -0.56700
C79         C  0.36092406  0.46283507  0.40768560     0.86400
C80         C  0.38725276  0.49687684  0.41050313    -0.53900
C81         C  0.38697881  0.50850842  0.42677160     0.09300
C82         C  0.35963850  0.48576853  0.43876336     0.20200
C83         C  0.36269847  0.44659186  0.42455650    -0.54600
C84         C  0.36251274  0.45879841  0.44091735     0.09400
C85         C  0.33201927  0.46201898  0.41059547    -0.54100
C86         C  0.33111953  0.47400670  0.42674452     0.09900
H87         H  0.40525448  0.51154312  0.40096913     0.14500
H88         H  0.35919635  0.49597310  0.45169544     0.00200
H89         H  0.36569399  0.42825404  0.42352964     0.14800
H90         H  0.31405783  0.45332831  0.40041815     0.14600
C91         C  0.60873484  0.77695425  0.44148514     0.86400
C92         C  0.57636326  0.74735639  0.44326673    -0.53900
C93         C  0.57483767  0.72119399  0.44182335     0.09300
C94         C  0.60613560  0.72663643  0.43922349     0.20200
C95         C  0.62728916  0.77371722  0.45640972    -0.54600
C96         C  0.62600435  0.74740985  0.45525232     0.09400
C97         C  0.62190325  0.77381687  0.42382701    -0.54100
C98         C  0.61981372  0.74731211  0.42238162     0.09900
H99         H  0.55619776  0.74711619  0.44568757     0.14500
H100        H  0.60443907  0.70504998  0.43803494     0.00200
H101        H  0.64107675  0.79057233  0.46674533     0.14800
H102        H  0.63196911  0.79104359  0.41319091     0.14600
C103        C  0.74416131  0.66012150  0.56026411     0.86400
C104        C  0.71356362  0.62803558  0.55883054    -0.53900
C105        C  0.68804079  0.62791205  0.56044778     0.09300
C106        C  0.69507639  0.65961927  0.56367421     0.20200
C107        C  0.74152042  0.67972943  0.54603831    -0.54600
C108        C  0.71574189  0.67918203  0.54775462     0.09400
C109        C  0.74130025  0.67185858  0.57882007    -0.54100
C110        C  0.71557278  0.67133345  0.58061605     0.09900
H111        H  0.71221069  0.60711750  0.55736654     0.14500
H112        H  0.67421602  0.65934045  0.56499014     0.00200
H113        H  0.75777586  0.69172330  0.53505574     0.14800
H114        H  0.75666304  0.67818114  0.59022779     0.14600
C115        C  0.42684565  0.41454679  0.59425153     0.86400
C116        C  0.46028420  0.44226791  0.59117306    -0.53900
C117        C  0.47279422  0.44136066  0.57538437     0.09300
C118        C  0.45098007  0.41282304  0.56381149     0.20200
C119        C  0.40968873  0.41350225  0.57706939    -0.54600
C120        C  0.42214379  0.41255903  0.56104784     0.09400
C121        C  0.42864783  0.38699638  0.59255343    -0.54100
C122        C  0.44094360  0.38580947  0.57667472     0.09900
H123        H  0.47402225  0.46087733  0.60059985     0.14500
H124        H  0.46153802  0.41209461  0.55106965     0.00200
H125        H  0.39030688  0.41498643  0.57763741     0.14800
H126        H  0.42071746  0.36971329  0.60306916     0.14600
C127        C  0.15382410  0.49349932  0.44138230     0.86400
C128        C  0.13970299  0.48114640  0.42255939    -0.53900
C129        C  0.11336676  0.47892909  0.41913081     0.09300
C130        C  0.10322995  0.48927431  0.43521281     0.20200
C131        C  0.15739098  0.52416616  0.44300719    -0.54600
C132        C  0.13105630  0.52191875  0.43951036     0.09400
C133        C  0.12763029  0.47256477  0.45488199    -0.54100
C134        C  0.10091951  0.47005471  0.45167182     0.09900
H135        H  0.15037834  0.47531513  0.41254426     0.14500
H136        H  0.08192442  0.48755192  0.43240539     0.00200
H137        H  0.17857100  0.54575700  0.44665451     0.14800
H138        H  0.13096278  0.46314301  0.46694382     0.14600
C139        C  0.95446471  0.40015943  0.59152104     0.86400
C140        C  0.97452307  0.40671171  0.57468385    -0.53900
C141        C  0.96126165  0.40604623  0.55863808     0.09300
C142        C  0.92903446  0.39869721  0.56063693     0.20200
C143        C  0.94677861  0.42360508  0.59006912    -0.54600
C144        C  0.93337481  0.42285785  0.57407915     0.09400
C145        C  0.92425842  0.36917941  0.58728519    -0.54100
C146        C  0.91056918  0.36821767  0.57129475     0.09900
H147        H  0.99720629  0.41167646  0.57482590     0.14500
H148        H  0.91872457  0.39844319  0.54746071     0.00200
H149        H  0.95225380  0.44004339  0.60070511     0.14800
H150        H  0.91407700  0.34985088  0.59656182     0.14600
C151        C  0.96227386  0.65986841  0.59172511     0.86400
C152        C  0.95249403  0.62666802  0.59114740    -0.53900
C153        C  0.94119330  0.61251597  0.57481800     0.09300
C154        C  0.93899483  0.63226953  0.56054606     0.20200
C155        C  0.98412364  0.67581125  0.57544342    -0.54600
C156        C  0.97211901  0.66125509  0.55911827     0.09400
C157        C  0.93289749  0.65696428  0.58601698    -0.54100
C158        C  0.92118124  0.64332748  0.56964573     0.09900
H159        H  0.95562493  0.61559656  0.60243705     0.14500
H160        H  0.92892608  0.62018394  0.54748387     0.00200
H161        H  0.00683546  0.69698920  0.57679642     0.14800
H162        H  0.92174923  0.66500359  0.59377540     0.14600
C163        C  0.08548171  0.71751004  0.40507263     0.86400
C164        C  0.08983647  0.69156633  0.40609922    -0.53900
C165        C  0.10205320  0.69017418  0.42207654     0.09300
C166        C  0.10879672  0.71492360  0.43584429     0.20200
C167        C  0.06619468  0.71291418  0.42189964    -0.54600
C168        C  0.07805802  0.71103030  0.43788242     0.09400
C169        C  0.11755313  0.74671868  0.40961011    -0.54100
C170        C  0.12976413  0.74540720  0.42560865     0.09900
H171        H  0.08380008  0.67563909  0.39504528     0.14500
H172        H  0.11843744  0.71363557  0.44892255     0.00200
H173        H  0.04462821  0.71057011  0.42120072     0.14800
H174        H  0.12989929  0.76741322  0.40155545     0.14600
C175        C  0.45123285  0.20406594  0.56386202     0.86400
C176        C  0.43739607  0.18780193  0.58200310    -0.53900
C177        C  0.43530404  0.16138127  0.58440131     0.09300
C178        C  0.44774856  0.15355747  0.56820185     0.20200
C179        C  0.48264182  0.20861329  0.56328905    -0.54600
C180        C  0.48058716  0.18211052  0.56549575     0.09400
C181        C  0.43221501  0.17971999  0.54922874    -0.54100
C182        C  0.43042232  0.15333636  0.55134716     0.09900
H183        H  0.43087755  0.19726657  0.59243810     0.14500
H184        H  0.44658521  0.13231915  0.57004598     0.00200
H185        H  0.50453316  0.22995814  0.56056597     0.14800
H186        H  0.42208066  0.18361883  0.53772089     0.14600
C187        C  0.34980986  0.99410612  0.41523900     0.86400
C188        C  0.35560123  0.01472352  0.43139702    -0.53900
C189        C  0.35803565  0.00411318  0.44769227     0.09300
C190        C  0.35379655  0.97302281  0.44654495     0.20200
C191        C  0.37557818  0.98933269  0.41633732    -0.54600
C192        C  0.37789819  0.97810607  0.43261418     0.09400
C193        C  0.32081339  0.96258934  0.42056947    -0.54100
C194        C  0.32286725  0.95157618  0.43678912     0.09900
H195        H  0.35851137  0.03647114  0.42999903     0.14500
H196        H  0.35433849  0.96373702  0.45987141     0.00200
H197        H  0.39068023  0.99451471  0.40495407     0.14800
H198        H  0.30043532  0.94873108  0.41234474     0.14600
C199        C  0.59690411  0.99068424  0.40419919     0.86400
C200        C  0.56327853  0.97692833  0.40924116    -0.53900
C201        C  0.55577171  0.96669945  0.42672094     0.09300
C202        C  0.58243683  0.97093633  0.43776624     0.20200
C203        C  0.61550202  0.01575531  0.41865559    -0.54600
C204        C  0.60793364  0.00536720  0.43617892     0.09400
C205        C  0.60107170  0.96548030  0.40908589    -0.54100
C206        C  0.59402204  0.95530752  0.42657254     0.09900
H207        H  0.54704028  0.97742693  0.40071684     0.14500
H208        H  0.57629615  0.96277897  0.45201304     0.00200
H209        H  0.63287108  0.03957705  0.41531282     0.14800
H210        H  0.60922329  0.95649308  0.39938969     0.14600
C211        C  0.66880750  0.12862099  0.58733927     0.86400
C212        C  0.64475822  0.13533906  0.58479752    -0.53900
C213        C  0.64615163  0.14833972  0.56853279     0.09300
C214        C  0.67172692  0.15359821  0.55599332     0.20200
C215        C  0.66450561  0.10900022  0.57073639    -0.54600
C216        C  0.66504176  0.12143701  0.55431282     0.09400
C217        C  0.69972071  0.15911874  0.58365645    -0.54100
C218        C  0.70135197  0.17239231  0.56746475     0.09900
H219        H  0.62774401  0.12996673  0.59503347     0.14500
H220        H  0.67280346  0.16448406  0.54288333     0.00200
H221        H  0.66242699  0.08773449  0.57152158     0.14800
H222        H  0.71879739  0.16962467  0.59317571     0.14600
O223        O  0.67370058  0.03405978  0.78089060    -0.58000
C224        C  0.67875123  0.05811080  0.71354916     0.74700
O225        O  0.73123089  0.09742467  0.76075512    -0.59100
C226        C  0.66608959  0.05245965  0.78158866     0.74600
C227        C  0.68970452  0.99087048  0.74819514     0.77000
Cd228      Cd  0.69275108  0.04649157  0.74924969     1.37500
O229        O  0.65720101  0.04062312  0.72450757    -0.57900
O230        O  0.66764135  0.99126443  0.74221393    -0.56800
C231        C  0.75426117  0.09957718  0.75436643     0.77000
O232        O  0.71180707  0.01552625  0.75517126    -0.59100
O233        O  0.70554436  0.06925382  0.71927758    -0.57600
O234        O  0.66707594  0.06484663  0.76669380    -0.57600
O235        O  0.74883285  0.07633112  0.74598893    -0.56700
O236        O  0.68559275  0.72548323  0.71717504    -0.58000
C237        C  0.69599977  0.74391142  0.77741500     0.74700
O238        O  0.77464326  0.79314543  0.74091132    -0.59100
C239        C  0.70299040  0.74166094  0.70404425     0.74600
C240        C  0.71180681  0.81581790  0.74023885     0.77000
Cd241      Cd  0.71828836  0.76591967  0.74086260     1.37500
O242        O  0.68069678  0.72690737  0.76393469    -0.57900
O243        O  0.68881384  0.78807702  0.73957078    -0.56800
C244        C  0.77366654  0.76946125  0.74468888     0.77000
O245        O  0.73787571  0.82040950  0.74078950    -0.59100
O246        O  0.72002583  0.76986703  0.77356075    -0.57600
O247        O  0.72572873  0.76823716  0.70818756    -0.57600
O248        O  0.74736106  0.74458908  0.74641941    -0.56700
O249        O  0.00883947  0.35247410  0.78500125    -0.58000
C250        C  0.01868055  0.37971070  0.71731666     0.74700
O251        O  0.05230106  0.33886452  0.74891114    -0.59100
C252        C  0.01485013  0.37871725  0.78770284     0.74600
C253        C  0.96349030  0.29939978  0.75330203     0.77000
Cd254      Cd  0.02121224  0.35834722  0.75290864     1.37500
O255        O  0.01817740  0.39293738  0.73140897    -0.57900
O256        O  0.96539715  0.32359215  0.74971544    -0.56800
C257        C  0.07785705  0.36316931  0.75305068     0.77000
O258        O  0.98852756  0.30259055  0.75630586    -0.59100
O259        O  0.02149609  0.35818318  0.72005770    -0.57600
O260        O  0.02532220  0.39677193  0.77418110    -0.57600
O261        O  0.07742978  0.38567912  0.75767264    -0.56700
O262        O  0.35789657  0.39292303  0.77941180    -0.58000
C263        C  0.34545596  0.38555125  0.72164492     0.74700
O264        O  0.29224962  0.30329312  0.75229802    -0.59100
C265        C  0.34193252  0.37663906  0.79286987     0.74600
C266        C  0.26622066  0.36222554  0.75616960     0.77000
Cd267      Cd  0.31812934  0.35894111  0.75634821     1.37500
O268        O  0.36078287  0.39732967  0.73615233    -0.57900
O269        O  0.29356092  0.38604209  0.75651652    -0.56800
C270        C  0.31676013  0.30474423  0.75292420     0.77000
O271        O  0.26298809  0.33682537  0.75636469    -0.59100
O272        O  0.31785873  0.36291972  0.72353826    -0.57600
O273        O  0.31502786  0.35378383  0.78925450    -0.57600
O274        O  0.34131946  0.33100416  0.75526872    -0.56700
O275        O  0.98079154  0.78103428  0.75895171    -0.58000
C276        C  0.06935650  0.81359853  0.75591000     0.74700
O277        O  0.00304339  0.71850880  0.77742941    -0.59100
C278        C  0.95593776  0.75947522  0.75179861     0.74600
C279        C  0.01216243  0.73404199  0.72096576     0.77000
Cd280      Cd  0.00886284  0.75760634  0.75554957     1.37500
O281        O  0.04651157  0.81209713  0.74948049    -0.57900
O282        O  0.02472705  0.76208383  0.72406894    -0.56800
C283        C  0.00161378  0.73129377  0.79145892     0.77000
O284        O  0.99858351  0.71606051  0.73433438    -0.59100
O285        O  0.06415016  0.78917709  0.76259022    -0.57600
O286        O  0.95541606  0.73680710  0.74640351    -0.57600
O287        O  0.00397867  0.75588758  0.78867059    -0.56700
O288        O  0.27682046  0.03834173  0.74431384    -0.58000
C289        C  0.32427480  0.12257736  0.74025778     0.74700
O290        O  0.36183273  0.06916430  0.76878814    -0.59100
C291        C  0.27620003  0.01437560  0.74518869     0.74600
C292        C  0.36481159  0.08370402  0.71048010     0.77000
Cd293      Cd  0.33224632  0.07432773  0.74404188     1.37500
O294        O  0.30161197  0.09473591  0.74013900    -0.57900
O295        O  0.37862614  0.09961197  0.72446955    -0.56800
C296        C  0.35175548  0.07720601  0.78134565     0.77000
O297        O  0.33678960  0.06215507  0.71254000    -0.59100
O298        O  0.35058644  0.12790861  0.74142538    -0.57600
O299        O  0.30185808  0.01812552  0.74449903    -0.57600
O300        O  0.33458280  0.08495307  0.77626222    -0.56700
C301        C  0.68210859  0.66712889  0.90526832     0.86400
C302        C  0.65525797  0.63302295  0.90558063    -0.53900
C303        C  0.65286450  0.61812581  0.92118889     0.09300
C304        C  0.67837210  0.63823706  0.93513057     0.20200
C305        C  0.67827271  0.68044041  0.92269579    -0.54600
C306        C  0.67637697  0.66562924  0.93855096     0.09400
C307        C  0.71033492  0.66680648  0.90916522    -0.54100
C308        C  0.70845484  0.65150999  0.92457740     0.09900
H309        H  0.63890152  0.62162490  0.89452852     0.14500
H310        H  0.67694753  0.62529534  0.94727023     0.00200
H311        H  0.67650232  0.69962361  0.92228407     0.14800
H312        H  0.72988071  0.67631378  0.90030269     0.14600
C313        C  0.43144548  0.34771170  0.94013673     0.86400
C314        C  0.46316339  0.37903290  0.93992201    -0.53900
C315        C  0.46193000  0.40335145  0.93639723     0.09300
C316        C  0.42930532  0.39446412  0.93317276     0.20200
C317        C  0.41259125  0.35196688  0.95383326    -0.54600
C318        C  0.41156559  0.37658585  0.95048236     0.09400
C319        C  0.41801613  0.34665859  0.92138958    -0.54100
C320        C  0.41641467  0.37071383  0.91780501     0.09900
H321        H  0.48502153  0.38232551  0.94159755     0.14500
H322        H  0.42860578  0.41422008  0.92974887     0.00200
H323        H  0.40231819  0.33747824  0.96574295     0.14800
H324        H  0.41082647  0.32859694  0.91158026     0.14600
C325        C  0.31015532  0.47497373  0.05933567     0.86400
C326        C  0.34262262  0.50455583  0.06068117    -0.53900
C327        C  0.36487494  0.50001687  0.06353505     0.09300
C328        C  0.35290228  0.46623642  0.06521661     0.20200
C329        C  0.31270832  0.45651493  0.04426870    -0.54600
C330        C  0.33489434  0.45148211  0.04732009     0.09400
C331        C  0.30579221  0.45696142  0.07675472    -0.54100
C332        C  0.32857708  0.45336734  0.08028030     0.09900
H333        H  0.34767089  0.52723412  0.05912607     0.14500
H334        H  0.37131735  0.46319515  0.06824152     0.00200
H335        H  0.29939243  0.44931988  0.03192002     0.14800
H336        H  0.28700517  0.44913718  0.08614119     0.14600
C337        C  0.62166037  0.72858395  0.08991595     0.86400
C338        C  0.58907009  0.69955064  0.08817907    -0.53900
C339        C  0.57524493  0.69556630  0.07182772     0.09300
C340        C  0.59535401  0.72242625  0.05854734     0.20200
C341        C  0.63869156  0.72692119  0.07350680    -0.54600
C342        C  0.62495824  0.72371528  0.05701931     0.09400
C343        C  0.61936576  0.75503460  0.08513983    -0.54100
C344        C  0.60535097  0.75190769  0.06900360     0.09900
H345        H  0.57826920  0.68259490  0.09897886     0.14500
H346        H  0.58426845  0.72010762  0.04528894     0.00200
H347        H  0.65872175  0.72668774  0.07456448     0.14800
H348        H  0.62781819  0.77460639  0.09396433     0.14600
C349        C  0.67670735  0.13759359  0.90609988     0.86400
C350        C  0.67041595  0.11549394  0.92175279    -0.53900
C351        C  0.67195714  0.12660577  0.93872915     0.09300
C352        C  0.68035098  0.15942915  0.93858833     0.20200
C353        C  0.65443843  0.14645951  0.90928173    -0.54600
C354        C  0.65612040  0.15766359  0.92619763     0.09400
C355        C  0.70839153  0.16692946  0.91081112    -0.54100
C356        C  0.71042374  0.17851104  0.92767412     0.09900
H357        H  0.66457635  0.09265382  0.91955039     0.14500
H358        H  0.68147546  0.16845980  0.95232304     0.00200
H359        H  0.63780109  0.14296923  0.89919084     0.14800
H360        H  0.72791590  0.17858625  0.90184723     0.14600
C361        C  0.36297901  0.98921577  0.09880590     0.86400
C362        C  0.38610407  0.98118509  0.09546545    -0.53900
C363        C  0.38364447  0.96905339  0.07880045     0.09300
C364        C  0.35850027  0.96585437  0.06676205     0.20200
C365        C  0.36849579  0.01054955  0.08275128    -0.54600
C366        C  0.36597156  0.99823648  0.06595954     0.09400
C367        C  0.33160109  0.95924155  0.09482034    -0.54100
C368        C  0.32909692  0.94734549  0.07804269     0.09900
H369        H  0.40363871  0.98498700  0.10480462     0.14500
H370        H  0.35635623  0.95558643  0.05327843     0.00200
H371        H  0.37445776  0.03349337  0.08460484     0.14800
H372        H  0.31272138  0.94849134  0.10441353     0.14600
C373        C  0.58998896  0.93180930  0.05836328     0.86400
C374        C  0.60714357  0.95025355  0.07543643    -0.53900
C375        C  0.60700265  0.97529530  0.07844021     0.09300
C376        C  0.58955499  0.97996022  0.06357780     0.20200
C377        C  0.55765882  0.92447045  0.06006940    -0.54600
C378        C  0.55740591  0.94954329  0.06275606     0.09400
C379        C  0.60494378  0.95581564  0.04287143    -0.54100
C380        C  0.60457657  0.98097781  0.04545772     0.09900
H381        H  0.61708783  0.94275504  0.08496484     0.14500
H382        H  0.58930210  0.00024773  0.06595594     0.00200
H383        H  0.53677854  0.90144186  0.05908181     0.14800
H384        H  0.61425536  0.95332109  0.03058324     0.14600
C385        C  0.41718095  0.11945582  0.91304757     0.86400
C386        C  0.45072556  0.13046340  0.91437747    -0.53900
C387        C  0.46456873  0.14334236  0.93054736     0.09300
C388        C  0.44369407  0.14484198  0.94410444     0.20200
C389        C  0.40181677  0.09773898  0.92967815    -0.54600
C390        C  0.41597467  0.11105384  0.94603526     0.09400
C391        C  0.41717208  0.14719013  0.91797654    -0.54100
C392        C  0.43126473  0.16069732  0.93393792     0.09900
H393        H  0.46208289  0.12660724  0.90369884     0.14500
H394        H  0.45521058  0.15656619  0.95700269     0.00200
H395        H  0.38252372  0.07394290  0.92880447     0.14800
H396        H  0.40740099  0.15597397  0.90928969     0.14600
C397        C  0.08001738  0.71956803  0.09388875     0.86400
C398        C  0.05961763  0.71287919  0.07715405    -0.53900
C399        C  0.07232903  0.71326473  0.06095977     0.09300
C400        C  0.10540196  0.72235764  0.06287682     0.20200
C401        C  0.08920091  0.69735765  0.09241179    -0.54600
C402        C  0.10283788  0.69900986  0.07640125     0.09400
C403        C  0.10956475  0.75123995  0.08952989    -0.54100
C404        C  0.12298939  0.75263711  0.07350110     0.09900
H405        H  0.03704129  0.70826230  0.07796049     0.14500
H406        H  0.11642280  0.72351167  0.04986099     0.00200
H407        H  0.08509674  0.68150874  0.10320512     0.14800
H408        H  0.11976388  0.77108757  0.09827842     0.14600
C409        C  0.95707227  0.40975788  0.91216291     0.86400
C410        C  0.94969114  0.43347303  0.91291090    -0.53900
C411        C  0.93698967  0.43382635  0.92882808     0.09300
C412        C  0.93269605  0.41023396  0.94282763     0.20200
C413        C  0.97766100  0.41705639  0.92898634    -0.54600
C414        C  0.96496077  0.41733472  0.94505348     0.09400
C415        C  0.92695079  0.37912723  0.91702834    -0.54100
C416        C  0.91395333  0.37943753  0.93277493     0.09900
H417        H  0.95425716  0.44884471  0.90171079     0.14500
H418        H  0.92192427  0.41043875  0.95560714     0.00200
H419        H  0.00005127  0.42131521  0.92869772     0.14800
H420        H  0.91615096  0.35901082  0.90840408     0.14600
C421        C  0.88629801  0.63238931  0.93873116     0.86400
C422        C  0.90101906  0.64601932  0.92023997    -0.53900
C423        C  0.92710265  0.64787627  0.91684950     0.09300
C424        C  0.93650832  0.63594782  0.93265726     0.20200
C425        C  0.88212856  0.60132973  0.93964249    -0.54600
C426        C  0.90819262  0.60314456  0.93599199     0.09400
C427        C  0.91216467  0.65199842  0.95270285    -0.54100
C428        C  0.93837737  0.65362312  0.94968921     0.09900
H429        H  0.89110243  0.65320438  0.91042412     0.14500
H430        H  0.95769439  0.63726635  0.93014262     0.00200
H431        H  0.86063149  0.57978751  0.94294183     0.14800
H432        H  0.90898124  0.66089022  0.96500112     0.14600
C433        C  0.09400912  0.47731723  0.09567579     0.86400
C434        C  0.10519111  0.51092528  0.09415991    -0.53900
C435        C  0.11651720  0.52386453  0.07753784     0.09300
C436        C  0.11710897  0.50254102  0.06392077     0.20200
C437        C  0.07156888  0.46111463  0.07965653    -0.54600
C438        C  0.08361694  0.47425992  0.06309531     0.09400
C439        C  0.12245920  0.47839843  0.09022417    -0.54100
C440        C  0.13425724  0.49110128  0.07362266     0.09900
H441        H  0.10241100  0.52295213  0.10489732     0.14500
H442        H  0.12673665  0.51337777  0.05049768     0.00200
H443        H  0.04812181  0.44113253  0.08128511     0.14800
H444        H  0.13340077  0.47055203  0.09849921     0.14600
C445        C  0.06543152  0.46393135  0.04605050    -0.20000
C446        C  0.07664381  0.45928748  0.03012917     0.36200
C447        C  0.06001995  0.45194748  0.01385611    -0.26000
C448        C  0.03246167  0.44961699  0.01310411     0.02600
C449        C  0.02102972  0.45395417  0.02915212     0.27500
C450        C  0.03733206  0.46042511  0.04551497    -0.25100
N451        N  0.10450811  0.46122252  0.03055373    -0.82500
H452        H  0.06862456  0.44789879  0.00176000     0.13300
C453        C  0.01545345  0.44189895  0.99558760     0.02600
N454        N  0.99325389  0.45238200  0.02869735    -0.81100
H455        H  0.02857638  0.46376368  0.05779838     0.18100
C456        C  0.98441573  0.41713537  0.99493537    -0.25900
C457        C  0.96748687  0.40900091  0.97876065     0.36100
C458        C  0.98183020  0.42540891  0.96265843    -0.19900
C459        C  0.01297875  0.45016189  0.96327127    -0.25200
C460        C  0.02984492  0.45878916  0.97957371     0.27500
H461        H  0.97323504  0.40371780  0.00706589     0.13200
N462        N  0.93594896  0.38348374  0.97876878    -0.82500
H463        H  0.02405015  0.46328066  0.95104135     0.18100
N464        N  0.06136118  0.48486502  0.97997432    -0.81100
H465        H  0.93470963  0.36443916  0.98366880     0.33700
H466        H  0.92427900  0.38817075  0.98791009     0.38200
H467        H  0.06850765  0.49467324  0.96706451     0.33700
H468        H  0.06274180  0.50136357  0.98832038     0.30400
H469        H  0.98800656  0.45607587  0.04162459     0.33700
H470        H  0.99722241  0.47030166  0.02047278     0.30400
H471        H  0.11969058  0.47789642  0.02119193     0.38300
H472        H  0.09953901  0.44018070  0.02633876     0.33700
C473        C  0.92815032  0.45513800  0.93176936    -0.20000
C474        C  0.93837657  0.47451785  0.94704948     0.36200
C475        C  0.93185858  0.49644022  0.94823304    -0.26000
C476        C  0.91550500  0.49938336  0.93442047     0.02600
C477        C  0.90420041  0.47911155  0.91955216     0.27500
C478        C  0.91078867  0.45733073  0.91833770    -0.25100
N479        N  0.95640980  0.47280549  0.96087696    -0.82500
H480        H  0.94066884  0.51216890  0.95958296     0.13300
C481        C  0.91241876  0.52521856  0.93494259     0.02600
N482        N  0.88637368  0.48100719  0.90565308    -0.81100
H483        H  0.90261046  0.44213350  0.90673750     0.18100
C484        C  0.92463261  0.54645563  0.92062598    -0.25900
C485        C  0.92305294  0.57166160  0.92068315     0.36100
C486        C  0.90923387  0.57606299  0.93536581    -0.19900
C487        C  0.89668356  0.55468414  0.94963715    -0.25200
C488        C  0.89816240  0.52925897  0.94957974     0.27500
H489        H  0.93567222  0.54354904  0.90935213     0.13200
N490        N  0.93493139  0.59237652  0.90558197    -0.82500
H491        H  0.88609325  0.55807870  0.96095215     0.18100
N492        N  0.88524547  0.50753603  0.96425966    -0.81100
H493        H  0.92356069  0.57992442  0.89384304     0.33700
H494        H  0.95818592  0.60146101  0.90422583     0.38200
H495        H  0.87575157  0.51388938  0.97398444     0.33700
H496        H  0.86716907  0.48653761  0.95896187     0.30400
H497        H  0.87997249  0.46460910  0.89559964     0.33700
H498        H  0.86609555  0.47558106  0.91164535     0.30400
H499        H  0.97717182  0.47946395  0.95499082     0.38300
H500        H  0.96187145  0.48846563  0.97125306     0.33700
C501        C  0.96278202  0.66485671  0.96381236    -0.20000
C502        C  0.97529042  0.69283391  0.97292045     0.36200
C503        C  0.99549774  0.70084663  0.98761667    -0.26000
C504        C  0.00340565  0.68128937  0.99350528     0.02600
C505        C  0.99199211  0.65387936  0.98397079     0.27500
C506        C  0.97188267  0.64598276  0.96918952    -0.25100
N507        N  0.96751965  0.71317885  0.96727531    -0.82500
H508        H  0.00437384  0.72205112  0.99479982     0.13300
C509        C  0.02200942  0.68885008  0.01033819     0.02600
N510        N  0.00047163  0.63396240  0.98957184    -0.81100
H511        H  0.96235171  0.62440729  0.96231000     0.18100
C512        C  0.00820420  0.67050489  0.02580233    -0.25900
C513        C  0.02436096  0.67761518  0.04229979     0.36100
C514        C  0.05495539  0.70398251  0.04345457    -0.19900
C515        C  0.06909859  0.72152671  0.02774205    -0.25200
C516        C  0.05289785  0.71435853  0.01122315     0.27500
H517        H  0.98458187  0.65066446  0.02500637     0.13200
N518        N  0.00994653  0.65787861  0.05778861    -0.82500
H519        H  0.09269232  0.74114663  0.02839358     0.18100
N520        N  0.06761350  0.73287739  0.99535138    -0.81100
H521        H  0.02204595  0.64851604  0.06086138     0.33700
H522        H  0.98749691  0.63952435  0.05468398     0.38200
H523        H  0.09030789  0.75087185  0.99826959     0.33700
H524        H  0.06851824  0.71918418  0.98568764     0.30400
H525        H  0.99001043  0.61463580  0.98123911     0.33700
H526        H  0.02411793  0.64579291  0.98768210     0.30400
H527        H  0.98780735  0.73417881  0.96385879     0.38300
H528        H  0.95776150  0.71673946  0.97833235     0.33700
C529        C  0.11361743  0.67953613  0.07261731    -0.20000
C530        C  0.13033716  0.67541995  0.08572584     0.36200
C531        C  0.13557007  0.65288515  0.08296703    -0.26000
C532        C  0.12487183  0.63483885  0.06726558     0.02600
C533        C  0.11070738  0.64089424  0.05343906     0.27500
C534        C  0.10517978  0.66325639  0.05625442    -0.25100
N535        N  0.14130908  0.69366611  0.10194724    -0.82500
H536        H  0.14660553  0.64827135  0.09351605     0.13300
C537        C  0.12407412  0.60674381  0.06696320     0.02600
N538        N  0.10099998  0.62344309  0.03693048    -0.81100
H539        H  0.09282037  0.66681897  0.04607445     0.18100
C540        C  0.09533319  0.57848590  0.06722498    -0.25900
C541        C  0.09280259  0.55126593  0.06990460     0.36100
C542        C  0.11939499  0.55205522  0.07220753    -0.19900
C543        C  0.14829577  0.58012360  0.07117439    -0.25200
C544        C  0.15090812  0.60764701  0.06858088     0.27500
H545        H  0.07462546  0.57765899  0.06619837     0.13200
N546        N  0.06306678  0.52284619  0.07088059    -0.82500
H547        H  0.16870628  0.58073721  0.07310084     0.18100
N548        N  0.18050932  0.63649579  0.06801953    -0.81100
H549        H  0.05105030  0.52425663  0.08150564     0.33700
H550        H  0.05145628  0.52020167  0.05878149     0.38200
H551        H  0.19788496  0.63320529  0.06946462     0.33700
H552        H  0.18307940  0.64590133  0.05511091     0.30400
H553        H  0.09080804  0.63057031  0.02816964     0.33700
H554        H  0.12066320  0.62827710  0.03039108     0.30400
H555        H  0.15731330  0.71642651  0.09803100     0.38300
H556        H  0.15299152  0.68763985  0.11021977     0.33700
C557        C  0.30006902  0.91968432  0.07134451    -0.20000
C558        C  0.27257267  0.91764469  0.07182315     0.36200
C559        C  0.24465979  0.88945725  0.06822421    -0.26000
C560        C  0.24390713  0.86356007  0.06391914     0.02600
C561        C  0.27169260  0.86648745  0.06149088     0.27500
C562        C  0.29963410  0.89467144  0.06530370    -0.25100
N563        N  0.27314938  0.94406747  0.07634117    -0.82500
H564        H  0.22330101  0.88726445  0.06967030     0.13300
C565        C  0.21400651  0.83323357  0.06466696     0.02600
N566        N  0.27144248  0.84102401  0.05506488    -0.81100
H567        H  0.32098481  0.89674545  0.06434530     0.18100
C568        C  0.19064708  0.82569945  0.05220514    -0.25900
C569        C  0.16084218  0.79885901  0.05443208     0.36100
C570        C  0.15446353  0.77922330  0.06917878    -0.19900
C571        C  0.17795405  0.78661910  0.08142433    -0.25200
C572        C  0.20739835  0.81360335  0.07947320     0.27500
H573        H  0.19529580  0.84121993  0.04113138     0.13200
N574        N  0.13684881  0.79251945  0.04231186    -0.82500
H575        H  0.17304614  0.77195429  0.09304070     0.18100
N576        N  0.23010682  0.82194761  0.09315994    -0.81100
H577        H  0.14341009  0.79151673  0.02914096     0.33700
H578        H  0.13494518  0.81086243  0.04286302     0.38200
H579        H  0.22163396  0.82346162  0.10555450     0.33700
H580        H  0.23307915  0.80433901  0.09423542     0.30400
H581        H  0.29385804  0.84744336  0.05339177     0.33700
H582        H  0.26151249  0.82395620  0.06499027     0.30400
H583        H  0.28560768  0.96052115  0.06623302     0.38300
H584        H  0.25100318  0.93875008  0.07602401     0.33700
C585        C  0.37120514  0.01450746  0.04840490    -0.20000
C586        C  0.35912196  0.03147562  0.04467827     0.36200
C587        C  0.36464877  0.04607831  0.02773321    -0.26000
C588        C  0.38184616  0.04378874  0.01435549     0.02600
C589        C  0.39317933  0.02611719  0.01788179     0.27500
C590        C  0.38785777  0.01182929  0.03483872    -0.25100
N591        N  0.34062041  0.03330611  0.05783485    -0.82500
H592        H  0.35577356  0.05952141  0.02508363     0.13300
C593        C  0.38957125  0.06126728  0.99707913     0.02600
N594        N  0.41013841  0.02282519  0.00418015    -0.81100
H595        H  0.39703819  0.99869335  0.03748395     0.18100
C596        C  0.42048341  0.08329658  0.99308415    -0.25900
C597        C  0.42948620  0.09924748  0.97658243     0.36100
C598        C  0.40711214  0.09398522  0.96372685    -0.19900
C599        C  0.37595735  0.07192099  0.96782262    -0.25200
C600        C  0.36698773  0.05535134  0.98431665     0.27500
H601        H  0.43795936  0.08771890  0.00276288     0.13200
N602        N  0.46156123  0.11982109  0.97280468    -0.82500
H603        H  0.35853988  0.06759112  0.95815300     0.18100
N604        N  0.33516685  0.03228951  0.98804382    -0.81100
H605        H  0.47124758  0.10757931  0.97359861     0.33700
H606        H  0.47162707  0.13659167  0.98290912     0.38200
H607        H  0.32146279  0.03066525  0.97728360     0.33700
H608        H  0.33219234  0.01122056  0.98880665     0.30400
H609        H  0.41704504  0.00925838  0.00893503     0.33700
H610        H  0.39526875  0.01108374  0.99326722     0.30400
H611        H  0.31916072  0.02444802  0.05199813     0.38300
H612        H  0.35090837  0.05640992  0.06073756     0.33700
C613        C  0.40520441  0.96192336  0.07286453    -0.20000
C614        C  0.40119928  0.93456935  0.07827858     0.36200
C615        C  0.42463748  0.93069905  0.07489357    -0.26000
C616        C  0.45192727  0.95378382  0.06634258     0.02600
C617        C  0.45536982  0.98062870  0.06027649     0.27500
C618        C  0.43186543  0.98441767  0.06359435    -0.25100
N619        N  0.37360392  0.91113012  0.08743739    -0.82500
H620        H  0.42215500  0.91012950  0.07950699     0.13300
C621        C  0.47792358  0.95099639  0.06557202     0.02600
N622        N  0.48311401  0.00429426  0.05133670    -0.81100
H623        H  0.43495579  0.00558336  0.05972592     0.18100
C624        C  0.48555623  0.94388989  0.04914029    -0.25900
C625        C  0.51076627  0.94206133  0.04807868     0.36100
C626        C  0.52882984  0.94798792  0.06369719    -0.19900
C627        C  0.52079047  0.95452347  0.08015841    -0.25200
C628        C  0.49557618  0.95623522  0.08124530     0.27500
H629        H  0.47192071  0.93995833  0.03714287     0.13200
N630        N  0.51879000  0.93536447  0.03109233    -0.82500
H631        H  0.53426043  0.95836472  0.09218376     0.18100
N632        N  0.48797453  0.96363438  0.09814140    -0.81100
H633        H  0.51541369  0.91417954  0.03242549     0.33700
H634        H  0.50395968  0.93283798  0.02078880     0.38200
H635        H  0.50311817  0.96670295  0.10838654     0.33700
H636        H  0.49114482  0.98469799  0.09646402     0.30400
H637        H  0.48192573  0.02246954  0.04765764     0.33700
H638        H  0.50107592  0.01302090  0.06070111     0.30400
H639        H  0.37306606  0.91985402  0.09997747     0.38300
H640        H  0.37403022  0.89221634  0.09022876     0.33700
C641        C  0.66340743  0.10738347  0.95540526    -0.20000
C642        C  0.68175261  0.11818017  0.97119982     0.36200
C643        C  0.67300153  0.09891496  0.98648858    -0.26000
C644        C  0.64594187  0.06904056  0.98635323     0.02600
C645        C  0.62739778  0.05830708  0.97062472     0.27500
C646        C  0.63631562  0.07753418  0.95534601    -0.25100
N647        N  0.70968682  0.14835507  0.97160190    -0.82500
H648        H  0.68739477  0.10728307  0.99850619     0.13300
C649        C  0.63723214  0.04878953  0.00253770     0.02600
N650        N  0.59966720  0.02778225  0.97020494    -0.81100
H651        H  0.62194852  0.06921757  0.94331675     0.18100
C652        C  0.61068176  0.03959278  0.01224423    -0.25900
C653        C  0.60004296  0.01820866  0.02650716     0.36100
C654        C  0.61631716  0.00573506  0.03140810    -0.19900
C655        C  0.64343888  0.01571069  0.02194986    -0.25200
C656        C  0.65392890  0.03690554  0.00753057     0.27500
H657        H  0.59762903  0.04847988  0.00838570     0.13200
N658        N  0.57193482  0.00831473  0.03533559    -0.82500
H659        H  0.65630130  0.00656248  0.02564594     0.18100
N660        N  0.68105300  0.04584417  0.99764788    -0.81100
H661        H  0.57446881  0.02749249  0.04104852     0.33700
H662        H  0.55470006  0.99947639  0.02546614     0.38200
H663        H  0.69072024  0.03510800  0.00301599     0.33700
H664        H  0.67440497  0.03788581  0.98434498     0.30400
H665        H  0.58850222  0.02346017  0.95771472     0.33700
H666        H  0.60584462  0.01252829  0.97127234     0.30400
H667        H  0.70835674  0.16029201  0.98230165     0.38300
H668        H  0.72771814  0.14644166  0.97436075     0.33700
C669        C  0.63378136  0.16375320  0.93230339    -0.20000
C670        C  0.62832092  0.18237158  0.92200905     0.36200
C671        C  0.60272891  0.18251028  0.92581993    -0.26000
C672        C  0.58229737  0.16410974  0.93971881     0.02600
C673        C  0.58905490  0.14725787  0.95094869     0.27500
C674        C  0.61494824  0.14743248  0.94719652    -0.25100
N675        N  0.64829471  0.20049610  0.90734826    -0.82500
H676        H  0.59775619  0.19554263  0.91714324     0.13300
C677        C  0.55185241  0.15894321  0.94032304     0.02600
N678        N  0.56880631  0.12900231  0.96557298    -0.81100
H679        H  0.61928007  0.13322582  0.95516352     0.18100
C680        C  0.52577609  0.12931350  0.93693875    -0.25900
C681        C  0.49691332  0.12366696  0.93447862     0.36100
C682        C  0.49401425  0.14822560  0.93544522    -0.19900
C683        C  0.51964778  0.17757020  0.93990387    -0.25200
C684        C  0.54873913  0.18325540  0.94219277     0.27500
H685        H  0.52820955  0.11069850  0.93541022     0.13200
N686        N  0.47060822  0.09319318  0.93051775    -0.82500
H687        H  0.51719657  0.19622792  0.94086112     0.18100
N688        N  0.57522672  0.21363278  0.94596423    -0.81100
H689        H  0.47670469  0.07784398  0.93010326     0.33700
H690        H  0.45510484  0.08613843  0.94121153     0.38200
H691        H  0.56910424  0.22893275  0.94679999     0.33700
H692        H  0.58348461  0.21318743  0.95877222     0.30400
H693        H  0.57680986  0.11773328  0.97239605     0.33700
H694        H  0.56930830  0.14391259  0.97492226     0.30400
H695        H  0.63522669  0.19385186  0.89543895     0.38300
H696        H  0.65704669  0.22337606  0.90988296     0.33700
C697        C  0.73921327  0.20760289  0.93375203    -0.20000
C698        C  0.73923169  0.23176149  0.94127364     0.36200
C699        C  0.76720769  0.26045458  0.94411469    -0.26000
C700        C  0.79523731  0.26573682  0.93908174     0.02600
C701        C  0.79522478  0.24136930  0.93178652     0.27500
C702        C  0.76737650  0.21251356  0.92964994    -0.25100
N703        N  0.71093000  0.22783017  0.94512184    -0.82500
H704        H  0.76695872  0.27897191  0.94972818     0.13300
C705        C  0.82440402  0.29699558  0.94045979     0.02600
N706        N  0.82337764  0.24632103  0.92585101    -0.81100
H707        H  0.76754893  0.19400226  0.92394522     0.18100
C708        C  0.84975568  0.30067020  0.94921569    -0.25900
C709        C  0.87926367  0.32796507  0.94751779     0.36100
C710        C  0.88311937  0.35286172  0.93805810    -0.19900
C711        C  0.85751905  0.35017133  0.93054657    -0.25200
C712        C  0.82822697  0.32226405  0.93130423     0.27500
H713        H  0.84680863  0.28139619  0.95635516     0.13200
N714        N  0.90546461  0.32996134  0.95458458    -0.82500
H715        H  0.86083587  0.36924594  0.92292888     0.18100
N716        N  0.80283136  0.31902760  0.92194377    -0.81100
H717        H  0.89868391  0.30970681  0.96128376     0.33700
H718        H  0.91891469  0.33218771  0.94359437     0.38200
H719        H  0.80953323  0.33974736  0.91591811     0.33700
H720        H  0.79639820  0.30344755  0.91136348     0.30400
H721        H  0.81940145  0.22608659  0.92082904     0.33700
H722        H  0.83171503  0.26177214  0.91499005     0.30400
H723        H  0.71094774  0.23266248  0.95885536     0.38300
H724        H  0.71010659  0.24383030  0.93745942     0.33700
C725        C  0.60096531  0.77566177  0.06295021    -0.20000
C726        C  0.57283757  0.77179207  0.06567238     0.36200
C727        C  0.57074899  0.79649938  0.06249097    -0.26000
C728        C  0.59667956  0.82568634  0.05776558     0.02600
C729        C  0.62504902  0.82967742  0.05566743     0.27500
C730        C  0.62677544  0.80458933  0.05788474    -0.25100
N731        N  0.54696334  0.74335065  0.07266900    -0.82500
H732        H  0.54902367  0.79333843  0.06452245     0.13300
C733        C  0.59409282  0.85208070  0.05695422     0.02600
N734        N  0.65254372  0.85950229  0.05247259    -0.81100
H735        H  0.64882066  0.80812951  0.05666796     0.18100
C736        C  0.58069318  0.85698795  0.07155289    -0.25900
C737        C  0.57811055  0.88164230  0.07165811     0.36100
C738        C  0.58979474  0.90289967  0.05705172    -0.19900
C739        C  0.60222677  0.89714870  0.04210156    -0.25200
C740        C  0.60416732  0.87199005  0.04189938     0.27500
H741        H  0.57243480  0.84172111  0.08316755     0.13200
N742        N  0.56398817  0.88530195  0.08691936    -0.82500
H743        H  0.61059799  0.91180082  0.03033026     0.18100
N744        N  0.61581683  0.86640962  0.02614224    -0.81100
H745        H  0.57618150  0.88725867  0.09861355     0.33700
H746        H  0.54166813  0.86549225  0.08813790     0.38200
H747        H  0.60210619  0.86357131  0.01505866     0.33700
H748        H  0.63798797  0.88586376  0.02372470     0.30400
H749        H  0.66771350  0.86471293  0.06320027     0.33700
H750        H  0.66257388  0.85862094  0.04056973     0.30400
H751        H  0.55257979  0.74037506  0.08573819     0.38300
H752        H  0.52801677  0.74421923  0.07402717     0.33700
C753        C  0.15976749  0.49098563  0.06582360    -0.20000
C754        C  0.18745496  0.51803579  0.06007108     0.36200
C755        C  0.21257524  0.51713941  0.05565711    -0.26000
C756        C  0.21039163  0.48978814  0.05710969     0.02600
C757        C  0.18237031  0.46258549  0.06222028     0.27500
C758        C  0.15727788  0.46341543  0.06627497    -0.25100
N759        N  0.19057205  0.54652054  0.05982966    -0.82500
H760        H  0.23436440  0.53805265  0.05201537     0.13300
C761        C  0.23834643  0.49033609  0.05602767     0.02600
N762        N  0.18016495  0.43467797  0.06450931    -0.81100
H763        H  0.13595187  0.44262433  0.07064898     0.18100
C764        C  0.25652490  0.49837955  0.07157635    -0.25900
C765        C  0.28058812  0.49498821  0.07232716     0.36100
C766        C  0.28601414  0.48184866  0.05750728    -0.19900
C767        C  0.26901319  0.47601547  0.04139054    -0.25200
C768        C  0.24546323  0.48044807  0.04048488     0.27500
H769        H  0.25153818  0.50672266  0.08341782     0.13200
N770        N  0.29913546  0.50441510  0.08841149    -0.82500
H771        H  0.27388111  0.46828962  0.02932356     0.18100
N772        N  0.22917990  0.47554088  0.02377858    -0.81100
H773        H  0.28480642  0.49236639  0.09945140     0.33700
H774        H  0.30913895  0.52770046  0.09043573     0.38200
H775        H  0.23766889  0.46905373  0.01346030     0.33700
H776        H  0.20627904  0.45726199  0.02564786     0.30400
H777        H  0.15834191  0.41705694  0.06911205     0.33700
H778        H  0.18268682  0.42793085  0.05177542     0.30400
H779        H  0.18929999  0.55179249  0.07328555     0.38300
H780        H  0.21228348  0.56419154  0.05512507     0.33700
C781        C  0.39759831  0.52572107  0.06394407    -0.20000
C782        C  0.41510205  0.53580028  0.04793850     0.36200
C783        C  0.44537304  0.56212111  0.04829178    -0.26000
C784        C  0.45820613  0.57872146  0.06438843     0.02600
C785        C  0.44061007  0.56873515  0.08045840     0.27500
C786        C  0.41040023  0.54212620  0.08007652    -0.25100
N787        N  0.40179930  0.51998364  0.03118532    -0.82500
H788        H  0.45870160  0.57000312  0.03589666     0.13300
C789        C  0.48944755  0.60752400  0.06406478     0.02600
N790        N  0.45298281  0.58643695  0.09682683    -0.81100
H791        H  0.39649233  0.53457507  0.09224214     0.18100
C792        C  0.49350511  0.63373767  0.05650336    -0.25900
C793        C  0.52168214  0.66259407  0.05799761     0.36100
C794        C  0.54631043  0.66536106  0.06720656    -0.19900
C795        C  0.54278732  0.63854182  0.07339878    -0.25200
C796        C  0.51476758  0.60978407  0.07205579     0.27500
H797        H  0.47427110  0.63198996  0.05006180     0.13200
N798        N  0.52455955  0.68897979  0.05081655    -0.82500
H799        H  0.56191131  0.63995719  0.07974010     0.18100
N800        N  0.51301103  0.58360682  0.07891962    -0.81100
H801        H  0.52044310  0.68582215  0.03684500     0.33700
H802        H  0.50731032  0.68997137  0.05656474     0.38200
H803        H  0.51666057  0.58630271  0.09294736     0.33700
H804        H  0.49139398  0.56327329  0.07682989     0.30400
H805        H  0.43657089  0.57671546  0.10714447     0.33700
H806        H  0.47088583  0.58528843  0.10125217     0.30400
H807        H  0.40256676  0.53534780  0.02199077     0.38300
H808        H  0.41547831  0.51355872  0.02602908     0.33700
C809        C  0.43102036  0.31914738  0.94415257    -0.20000
C810        C  0.40446541  0.28919592  0.94051975     0.36200
C811        C  0.40595384  0.26384689  0.94191416    -0.26000
C812        C  0.43277265  0.26726442  0.94767954     0.02600
C813        C  0.45803915  0.29625602  0.95323948     0.27500
C814        C  0.45693490  0.32179384  0.95149811    -0.25100
N815        N  0.37629504  0.28461074  0.93484433    -0.82500
H816        H  0.38630542  0.24133680  0.93800801     0.13300
C817        C  0.43487505  0.24082390  0.94637030     0.02600
N818        N  0.48485666  0.29962261  0.96049415    -0.81100
H819        H  0.47651248  0.34359075  0.95613666     0.18100
C820        C  0.45539811  0.24236800  0.93383105    -0.25900
C821        C  0.45563065  0.21674055  0.93034309     0.36100
C822        C  0.43529358  0.18920188  0.93978904    -0.19900
C823        C  0.41572514  0.18792866  0.95294709    -0.25200
C824        C  0.41523203  0.21354894  0.95629426     0.27500
H825        H  0.47035464  0.26328163  0.92617073     0.13200
N826        N  0.47548990  0.21807251  0.91668614    -0.82500
H827        H  0.39991652  0.16655255  0.96000660     0.18100
N828        N  0.39444273  0.21183743  0.96937387    -0.81100
H829        H  0.48874336  0.23983576  0.91077502     0.33700
H830        H  0.49075971  0.21469207  0.92315711     0.38200
H831        H  0.38141660  0.19015477  0.97540216     0.33700
H832        H  0.40762788  0.22742404  0.97971220     0.30400
H833        H  0.50157171  0.32242734  0.96396245     0.33700
H834        H  0.47845916  0.28699468  0.97255594     0.30400
H835        H  0.36807156  0.29025672  0.94575917     0.38300
H836        H  0.35953785  0.26153260  0.93200026     0.33700
C837        C  0.34323993  0.43646527  0.03377513    -0.20000
C838        C  0.32172042  0.41355682  0.02151767     0.36200
C839        C  0.33160244  0.40282796  0.00786984    -0.26000
C840        C  0.36243372  0.41335200  0.00656494     0.02600
C841        C  0.38351810  0.43435765  0.01963412     0.27500
C842        C  0.37386411  0.44599089  0.03279334    -0.25100
N843        N  0.28967563  0.40045133  0.02303172    -0.82500
H844        H  0.31503508  0.38634502  0.99812536     0.13300
C845        C  0.37284763  0.40322837  0.99124687     0.02600
N846        N  0.41480075  0.44390686  0.01945936    -0.81100
H847        H  0.39083059  0.46319103  0.04202114     0.18100
C848        C  0.39800858  0.42550780  0.98080916    -0.25900
C849        C  0.41071966  0.41748686  0.96742229     0.36100
C850        C  0.39726638  0.38631501  0.96354205    -0.19900
C851        C  0.37092204  0.36394531  0.97332162    -0.25200
C852        C  0.35889387  0.37200820  0.98729195     0.27500
H853        H  0.40864554  0.44955185  0.98349713     0.13200
N854        N  0.43826823  0.44129747  0.95858517    -0.82500
H855        H  0.36004202  0.33995804  0.97036858     0.18100
N856        N  0.33316295  0.34860282  0.99777738    -0.81100
H857        H  0.43389203  0.45580189  0.95207692     0.33700
H858        H  0.45501722  0.45400449  0.96851389     0.38200
H859        H  0.32556501  0.32685607  0.99313772     0.33700
H860        H  0.34074205  0.35025509  0.01112064     0.30400
H861        H  0.42744796  0.45951554  0.02988838     0.33700
H862        H  0.41460556  0.42460585  0.02215844     0.30400
H863        H  0.27800574  0.37687603  0.02504606     0.38300
H864        H  0.28223259  0.40383506  0.01070362     0.33700
C865        C  0.73206846  0.64562874  0.92896574    -0.20000
C866        C  0.74317532  0.64779196  0.94676194     0.36200
C867        C  0.76648641  0.64330838  0.94973943    -0.26000
C868        C  0.77962495  0.63762321  0.93524960     0.02600
C869        C  0.76843751  0.63551006  0.91748251     0.27500
C870        C  0.74448374  0.63879525  0.91465308    -0.25100
N871        N  0.73142364  0.65529518  0.96166429    -0.82500
H872        H  0.77481296  0.64474326  0.96340214     0.13300
C873        C  0.80550516  0.63462515  0.93854475     0.02600
N874        N  0.78195487  0.63078014  0.90224211    -0.81100
H875        H  0.73574709  0.63643819  0.90100356     0.18100
C876        C  0.80399183  0.60974185  0.93108879    -0.25900
C877        C  0.82942649  0.60835236  0.93126487     0.36100
C878        C  0.85668531  0.63081353  0.94064450    -0.19900
C879        C  0.85770624  0.65532334  0.94864133    -0.25200
C880        C  0.83275262  0.65767728  0.94746683     0.27500
H881        H  0.78332862  0.59193934  0.92409862     0.13200
N882        N  0.82780110  0.58485223  0.92094755    -0.82500
H883        H  0.87872010  0.67403473  0.95477027     0.18100
N884        N  0.83562579  0.68422619  0.95450266    -0.81100
H885        H  0.82326460  0.58695702  0.90741333     0.33700
H886        H  0.80939024  0.56363346  0.92580072     0.38200
H887        H  0.85704648  0.69911209  0.96063968     0.33700
H888        H  0.83469549  0.69607208  0.94349300     0.30400
H889        H  0.77103291  0.62962722  0.89013942     0.33700
H890        H  0.80468351  0.64996459  0.90118962     0.30400
H891        H  0.74200622  0.65603990  0.97382506     0.38300
H892        H  0.73730686  0.67738005  0.95941367     0.33700
C893        C  0.67210579  0.67517689  0.95694207    -0.20000
C894        C  0.65555426  0.65407546  0.97126831     0.36200
C895        C  0.65066564  0.66400867  0.98763295    -0.26000
C896        C  0.66114109  0.69450634  0.99022367     0.02600
C897        C  0.67865725  0.71602416  0.97640900     0.27500
C898        C  0.68419422  0.70624091  0.96008435    -0.25100
N899        N  0.64246167  0.62220690  0.96931843    -0.82500
H900        H  0.63762617  0.64738183  0.99828583     0.13300
C901        C  0.65204351  0.70287556  0.00706937     0.02600
N902        N  0.69020170  0.74760213  0.97882224    -0.81100
H903        H  0.69782225  0.72310092  0.94968315     0.18100
C904        C  0.67448511  0.72577359  0.01870403    -0.25900
C905        C  0.66630182  0.73340923  0.03483165     0.36100
C906        C  0.63507978  0.71769698  0.03966550    -0.19900
C907        C  0.61271578  0.69502475  0.02791700    -0.25200
C908        C  0.62078960  0.68762768  0.01168264     0.27500
H909        H  0.69852474  0.73769098  0.01531234     0.13200
N910        N  0.68978376  0.75756543  0.04602945    -0.82500
H911        H  0.58872122  0.68257745  0.03152750     0.18100
N912        N  0.59729549  0.66468121  0.99979401    -0.81100
H913        H  0.70474186  0.75187963  0.04993640     0.33700
H914        H  0.70213834  0.77751967  0.03818803     0.38200
H915        H  0.57552893  0.65549837  0.00516064     0.33700
H916        H  0.59859345  0.67549193  0.98761798     0.30400
H917        H  0.70272313  0.76053837  0.96745548     0.33700
H918        H  0.67134889  0.74870908  0.97972139     0.30400
H919        H  0.65204238  0.61613993  0.97928727     0.38300
H920        H  0.61895295  0.60992660  0.97191508     0.33700
C921        C  0.62632128  0.58622436  0.92455741    -0.20000
C922        C  0.62348277  0.56149848  0.91572663     0.36200
C923        C  0.59670212  0.53174167  0.91800040    -0.26000
C924        C  0.57265867  0.52634115  0.92903661     0.02600
C925        C  0.57556999  0.55119370  0.93793559     0.27500
C926        C  0.60222762  0.58095067  0.93536868    -0.25100
N927        N  0.64764799  0.56666833  0.90429410    -0.82500
H928        H  0.59460130  0.51279407  0.91108762     0.13300
C929        C  0.54422773  0.49476923  0.93083636     0.02600
N930        N  0.55117983  0.54616103  0.94922318    -0.81100
H931        H  0.60377447  0.60026366  0.94127159     0.18100
C932        C  0.53614814  0.48036887  0.94787545    -0.25900
C933        C  0.50917842  0.45086838  0.95027145     0.36100
C934        C  0.48984312  0.43519937  0.93511869    -0.19900
C935        C  0.49775115  0.44973437  0.91812211    -0.25200
C936        C  0.52481658  0.47934208  0.91580279     0.27500
H937        H  0.55093713  0.49225387  0.95946512     0.13200
N938        N  0.50220906  0.43785730  0.96823969    -0.82500
H939        H  0.48292087  0.43771389  0.90656599     0.18100
N940        N  0.53267103  0.49385222  0.89827019    -0.81100
H941        H  0.50023099  0.45224985  0.97669777     0.33700
H942        H  0.48101791  0.41663046  0.96873182     0.38200
H943        H  0.51614851  0.47937110  0.88862374     0.33700
H944        H  0.53219960  0.51305628  0.89919537     0.30400
H945        H  0.55704507  0.56676587  0.95490047     0.33700
H946        H  0.53209293  0.53828637  0.94090048     0.30400
H947        H  0.63861476  0.55876364  0.89128717     0.38300
H948        H  0.65494386  0.55355739  0.90928470     0.33700
C949        C  0.35895408  0.07773941  0.80100012    -0.20000
C950        C  0.37782474  0.06908455  0.80766474     0.36200
C951        C  0.38466136  0.07175085  0.82639606    -0.26000
C952        C  0.37263474  0.08232866  0.83854526     0.02600
C953        C  0.35305782  0.08993351  0.83206278     0.27500
C954        C  0.34636734  0.08749607  0.81345137    -0.25100
N955        N  0.39047328  0.05824939  0.79548181    -0.82500
H956        H  0.40001019  0.06628492  0.83150693     0.13300
C957        C  0.38397750  0.08971715  0.85750414     0.02600
N958        N  0.34103931  0.10129203  0.84437180    -0.81100
H959        H  0.33160410  0.09388068  0.80864258     0.18100
C960        C  0.40863135  0.11968887  0.86125681    -0.25900
C961        C  0.41925515  0.12906000  0.87899772     0.36100
C962        C  0.40488353  0.10818117  0.89372755    -0.19900
C963        C  0.38023568  0.07772899  0.88980188    -0.25200
C964        C  0.36965125  0.06835691  0.87179575     0.27500
H965        H  0.41958547  0.13616278  0.85027357     0.13200
N966        N  0.44479652  0.16015616  0.88201236    -0.82500
H967        H  0.36901403  0.06104979  0.90054961     0.18100
N968        N  0.34454574  0.03730366  0.86794821    -0.81100
H969        H  0.43898866  0.17454672  0.87711098     0.33700
H970        H  0.46338839  0.16433660  0.87447795     0.38200
H971        H  0.33671453  0.02431796  0.87988492     0.33700
H972        H  0.32639636  0.03760029  0.86292140     0.30400
H973        H  0.32749166  0.10650687  0.83741987     0.33700
H974        H  0.32654221  0.08366903  0.85345927     0.30400
H975        H  0.37224132  0.03710845  0.79043969     0.38300
H976        H  0.40474919  0.05405266  0.80249957     0.33700
C977        C  0.10048551  0.84235695  0.75516948    -0.20000
C978        C  0.12273093  0.85020691  0.76869677     0.36200
C979        C  0.15184017  0.87817047  0.76734659    -0.26000
C980        C  0.15902210  0.89797718  0.75267465     0.02600
C981        C  0.13729785  0.88965964  0.73882909     0.27500
C982        C  0.10804412  0.86212686  0.74037202    -0.25100
N983        N  0.11558759  0.83007437  0.78382732    -0.82500
H984        H  0.16892574  0.88470039  0.77779622     0.13300
C985        C  0.18940973  0.92748520  0.75183769     0.02600
N986        N  0.14540253  0.90869775  0.72299083    -0.81100
H987        H  0.09122105  0.85575919  0.72977680     0.18100
C988        C  0.21421281  0.92843405  0.74478397    -0.25900
C989        C  0.24314252  0.95639511  0.74278849     0.36100
C990        C  0.24684105  0.98393419  0.74750197    -0.19900
C991        C  0.22193057  0.98265188  0.75491303    -0.25200
C992        C  0.19337240  0.95465927  0.75739805     0.27500
H993        H  0.21087335  0.90725995  0.74075081     0.13200
N994        N  0.26833260  0.95683732  0.73558129    -0.82500
H995        H  0.22483281  0.00359122  0.75901292     0.18100
N996        N  0.16864431  0.95363343  0.76594414    -0.81100
H997        H  0.26104988  0.93484225  0.73167674     0.33700
H998        H  0.28403766  0.96309083  0.74614456     0.38200
H999        H  0.17566218  0.97561462  0.76967704     0.33700
H1000       H  0.15104668  0.94582878  0.75644593     0.30400
H1001       H  0.12710047  0.89874336  0.71379663     0.33700
H1002       H  0.14941469  0.92941081  0.72697617     0.30400
H1003       H  0.09852624  0.82901304  0.79142140     0.38300
H1004       H  0.13461557  0.83911118  0.79239093     0.33700
C1005       C  0.99672744  0.71844294  0.81019343    -0.20000
C1006       C  0.98780264  0.68828703  0.81366513     0.36200
C1007       C  0.98044806  0.67662905  0.83153934    -0.26000
C1008       C  0.98168277  0.69431597  0.84598115     0.02600
C1009       C  0.99190477  0.72476880  0.84271611     0.27500
C1010       C  0.99951186  0.73654743  0.82494725    -0.25100
N1011       N  0.98529015  0.66922508  0.79907779    -0.82500
H1012       H  0.97247787  0.65318332  0.83413793     0.13300
C1013       C  0.96846817  0.67971885  0.86390423     0.02600
N1014       N  0.99343271  0.74326052  0.85737121    -0.81100
H1015       H  0.00671525  0.75979851  0.82255804     0.18100
C1016       C  0.98720592  0.68924114  0.87943945    -0.25900
C1017       C  0.97438910  0.67840258  0.89682061     0.36100
C1018       C  0.94233955  0.65770158  0.89873417    -0.19900
C1019       C  0.92387558  0.64723061  0.88304671    -0.25200
C1020       C  0.93651348  0.65825897  0.86573337     0.27500
H1021       H  0.01176570  0.70587946  0.87811599     0.13200
N1022       N  0.99385935  0.68959440  0.91250095    -0.82500
H1023       H  0.89927286  0.63086722  0.88434685     0.18100
N1024       N  0.91690611  0.64855098  0.85003372    -0.81100
H1025       H  0.00594306  0.71343097  0.91272704     0.33700
H1026       H  0.00972301  0.68426096  0.91109591     0.38200
H1027       H  0.89398119  0.63262290  0.85367326     0.33700
H1028       H  0.91848435  0.66765741  0.84489940     0.30400
H1029       H  0.00158342  0.76522060  0.85275545     0.33700
H1030       H  0.97107155  0.73338321  0.86194817     0.30400
H1031       H  0.96681671  0.66410867  0.79092684     0.38300
H1032       H  0.97976922  0.64830002  0.80408416     0.33700
C1033       C  0.32051103  0.14778356  0.73961801    -0.20000
C1034       C  0.29453835  0.14459971  0.74714412     0.36200
C1035       C  0.29355846  0.17020744  0.74790023    -0.26000
C1036       C  0.31784644  0.19875223  0.74124895     0.02600
C1037       C  0.34311597  0.20160307  0.73299300     0.27500
C1038       C  0.34431930  0.17613542  0.73241426    -0.25100
N1039       N  0.26984680  0.11581676  0.75463782    -0.82500
H1040       H  0.27427536  0.16820181  0.75432049     0.13300
C1041       C  0.31730565  0.22580954  0.74400922     0.02600
N1042       N  0.36752182  0.23042418  0.72539136    -0.81100
H1043       H  0.36405365  0.17847681  0.72642678     0.18100
C1044       C  0.34112695  0.25071303  0.75389452    -0.25900
C1045       C  0.34125161  0.27654374  0.75727234     0.36100
C1046       C  0.31688427  0.27739735  0.75061734    -0.19900
C1047       C  0.29280350  0.25220751  0.74097528    -0.25200
C1048       C  0.29292257  0.22652897  0.73744369     0.27500
H1049       H  0.35952834  0.24978118  0.75919175     0.13200
N1050       N  0.36582417  0.30165858  0.76760229    -0.82500
H1051       H  0.27422036  0.25288754  0.73575179     0.18100
N1052       N  0.26866595  0.20137755  0.72699784    -0.81100
H1053       H  0.38207722  0.29752693  0.77120730     0.33700
H1054       H  0.35651142  0.30288929  0.77972758     0.38200
H1055       H  0.25247361  0.20547403  0.72317515     0.33700
H1056       H  0.27829818  0.20016488  0.71500953     0.30400
H1057       H  0.38443127  0.22868516  0.71986150     0.33700
H1058       H  0.35832202  0.23550125  0.71462404     0.30400
H1059       H  0.27838286  0.11125419  0.76601743     0.38300
H1060       H  0.25231832  0.11731736  0.75930256     0.33700
C1061       C  0.35379797  0.38247087  0.81184405    -0.20000
C1062       C  0.38549609  0.40091035  0.81597437     0.36200
C1063       C  0.39523749  0.40110699  0.83381688    -0.26000
C1064       C  0.37415824  0.38303482  0.84759941     0.02600
C1065       C  0.34246966  0.36605194  0.84369878     0.27500
C1066       C  0.33272200  0.36623680  0.82597306    -0.25100
N1067       N  0.40777066  0.41821344  0.80198053    -0.82500
H1068       H  0.41954551  0.41479807  0.83690154     0.13300
C1069       C  0.38563813  0.38065882  0.86562301     0.02600
N1070       N  0.32025118  0.34764140  0.85752392    -0.81100
H1071       H  0.30836839  0.35240490  0.82301620     0.18100
C1072       C  0.37500813  0.38552611  0.88172727    -0.25900
C1073       C  0.38454063  0.38214423  0.89883847     0.36100
C1074       C  0.40568573  0.37453769  0.90000571    -0.19900
C1075       C  0.41656720  0.36998437  0.88395959    -0.25200
C1076       C  0.40654734  0.37258480  0.86682861     0.27500
H1077       H  0.35897385  0.39169880  0.88103969     0.13200
N1078       N  0.37186142  0.38538421  0.91498443    -0.82500
H1079       H  0.43289588  0.36419770  0.88480299     0.18100
N1080       N  0.41713821  0.36651366  0.85066187    -0.81100
H1081       H  0.34804131  0.36946764  0.91446308     0.33700
H1082       H  0.37671489  0.40730120  0.91497495     0.38200
H1083       H  0.43257814  0.36113497  0.85389057     0.33700
H1084       H  0.39819062  0.34708492  0.84452494     0.30400
H1085       H  0.29794847  0.33685368  0.85248494     0.33700
H1086       H  0.32275682  0.33027031  0.86106896     0.30400
H1087       H  0.40555380  0.43556326  0.79788141     0.38300
H1088       H  0.43003083  0.42915907  0.80712483     0.33700
C1089       C  0.23933182  0.36375742  0.75559258    -0.20000
C1090       C  0.24209068  0.39080214  0.75053761     0.36200
C1091       C  0.21590186  0.39101690  0.75044106    -0.26000
C1092       C  0.18700371  0.36477214  0.75499929     0.02600
C1093       C  0.18411068  0.33773640  0.75990464     0.27500
C1094       C  0.21024667  0.33747246  0.76008601    -0.25100
N1095       N  0.27124566  0.41777381  0.74518745    -0.82500
H1096       H  0.21787960  0.41159337  0.74644353     0.13300
C1097       C  0.15976897  0.36563943  0.75415288     0.02600
N1098       N  0.15464464  0.31073912  0.76480709    -0.81100
H1099       H  0.20789646  0.31666936  0.76396231     0.18100
C1100       C  0.13598545  0.34621495  0.74202653    -0.25900
C1101       C  0.10945579  0.34570836  0.74104270     0.36100
C1102       C  0.10649076  0.36482377  0.75263916    -0.19900
C1103       C  0.13078987  0.38503367  0.76434173    -0.25200
C1104       C  0.15735519  0.38549392  0.76529821     0.27500
H1105       H  0.13825110  0.33146617  0.73323358     0.13200
N1106       N  0.08570978  0.32610985  0.72816400    -0.82500
H1107       H  0.12865443  0.39982993  0.77316570     0.18100
N1108       N  0.18161427  0.40555671  0.77777930    -0.81100
H1109       H  0.09138348  0.31340854  0.72079502     0.33700
H1110       H  0.08456847  0.34016369  0.71879760     0.38200
H1111       H  0.17632918  0.41872783  0.78496181     0.33700
H1112       H  0.18299894  0.39189112  0.78733342     0.30400
H1113       H  0.15637166  0.29273903  0.76799058     0.33700
H1114       H  0.14758362  0.31566667  0.77664291     0.30400
H1115       H  0.27754488  0.41274540  0.73306663     0.38300
H1116       H  0.26934663  0.43574285  0.74226589     0.33700
C1117       C  0.00901555  0.38679363  0.80574670    -0.20000
C1118       C  0.01984795  0.41704140  0.81064401     0.36200
C1119       C  0.01345873  0.42267722  0.82810467    -0.26000
C1120       C  0.99599394  0.39870687  0.84050123     0.02600
C1121       C  0.98501084  0.36864160  0.83564869     0.27500
C1122       C  0.99170562  0.36301031  0.81841222    -0.25100
N1123       N  0.03736247  0.44191443  0.79805286    -0.82500
H1124       H  0.02161217  0.44572298  0.83197288     0.13300
C1125       C  0.98811412  0.40475346  0.85839080     0.02600
N1126       N  0.96679010  0.34389923  0.84824148    -0.81100
H1127       H  0.98301499  0.33971346  0.81482550     0.18100
C1128       C  0.95885544  0.39783809  0.86086916    -0.25900
C1129       C  0.94916514  0.40018194  0.87799932     0.36100
C1130       C  0.96878505  0.40898787  0.89332178    -0.19900
C1131       C  0.99874651  0.41709515  0.89048919    -0.25200
C1132       C  0.00850473  0.41499477  0.87318441     0.27500
H1133       H  0.94321069  0.39010224  0.84943642     0.13200
N1134       N  0.91904419  0.39319797  0.87981078    -0.82500
H1135       H  0.01491200  0.42509295  0.90152332     0.18100
N1136       N  0.03895860  0.42298155  0.87056953    -0.81100
H1137       H  0.91744852  0.40786381  0.87125865     0.33700
H1138       H  0.90312453  0.37074513  0.87538152     0.38200
H1139       H  0.05134243  0.43047262  0.88274140     0.33700
H1140       H  0.03699201  0.40308639  0.86688263     0.30400
H1141       H  0.96006688  0.32304395  0.84251233     0.33700
H1142       H  0.98068614  0.34752767  0.85939802     0.30400
H1143       H  0.02252519  0.43888089  0.78760986     0.38300
H1144       H  0.04496660  0.46275036  0.80419648     0.33700
C1145       C  0.80168284  0.77040448  0.74655374    -0.20000
C1146       C  0.80587138  0.75559825  0.76105103     0.36200
C1147       C  0.83133885  0.75437866  0.76089110    -0.26000
C1148       C  0.85309535  0.76814669  0.74697218     0.02600
C1149       C  0.84955451  0.78369932  0.73284937     0.27500
C1150       C  0.82385154  0.78472822  0.73280017    -0.25100
N1151       N  0.78531549  0.74208474  0.77627690    -0.82500
H1152       H  0.83437285  0.74279418  0.77187194     0.13300
C1153       C  0.87986832  0.76664732  0.74777517     0.02600
N1154       N  0.87194084  0.79815016  0.71860432    -0.81100
H1155       H  0.82067086  0.79607243  0.72173915     0.18100
C1156       C  0.88212856  0.74821949  0.73542679    -0.25900
C1157       C  0.90635148  0.74486615  0.73656963     0.36100
C1158       C  0.92912946  0.76095577  0.75014712    -0.19900
C1159       C  0.92685331  0.77969223  0.76230419    -0.25200
C1160       C  0.90240203  0.78256966  0.76131004     0.27500
H1161       H  0.86457949  0.73596750  0.72509781     0.13200
N1162       N  0.90813839  0.72577934  0.72376653    -0.82500
H1163       H  0.94413842  0.79200279  0.77275726     0.18100
N1164       N  0.90026885  0.80157427  0.77399775    -0.81100
H1165       H  0.89085566  0.71746699  0.71396164     0.33700
H1166       H  0.90359456  0.70659179  0.73082566     0.38200
H1167       H  0.91851548  0.81152878  0.78323031     0.33700
H1168       H  0.90250565  0.81953399  0.76666718     0.30400
H1169       H  0.86582185  0.80840432  0.70916580     0.33700
H1170       H  0.89265161  0.81580367  0.72445257     0.30400
H1171       H  0.76879686  0.74660476  0.77598156     0.38300
H1172       H  0.79818498  0.75282504  0.78802423     0.33700
C1173       C  0.68260533  0.68302294  0.88749409    -0.20000
C1174       C  0.65568586  0.67952288  0.88098287     0.36200
C1175       C  0.65489031  0.68964547  0.86340951    -0.18800
C1176       C  0.68084653  0.70438249  0.85223296     0.02600
C1177       C  0.70845378  0.71032285  0.85912620     0.27500
C1178       C  0.70917934  0.70011112  0.87662665    -0.25100
N1179       N  0.62885175  0.66529567  0.89210852    -0.82500
H1180       H  0.63386051  0.68594803  0.85847090     0.13300
C1181       C  0.67964113  0.71423842  0.83344047     0.02600
N1182       N  0.73570966  0.72642089  0.84815721    -0.81100
H1183       H  0.73095774  0.70592458  0.88145213     0.18100
C1184       C  0.69881100  0.74542002  0.82909247    -0.25900
C1185       C  0.70285025  0.75555725  0.81106291     0.36100
C1186       C  0.68763023  0.73416899  0.79677940    -0.19900
C1187       C  0.66637680  0.70308601  0.80127473    -0.25200
C1188       C  0.66223471  0.69290163  0.81949146     0.27500
H1189       H  0.71168995  0.76202094  0.83976262     0.13200
N1190       N  0.72297379  0.78772160  0.80737170    -0.82500
H1191       H  0.65409365  0.68651487  0.79052184     0.18100
N1192       N  0.64128054  0.66093299  0.82378603    -0.81100
H1193       H  0.71490388  0.79862745  0.81441419     0.33700
H1194       H  0.74471825  0.79580410  0.81245338     0.38200
H1195       H  0.63008559  0.64830631  0.81206428     0.33700
H1196       H  0.65414820  0.65328318  0.82868405     0.30400
H1197       H  0.75425638  0.72928950  0.85517499     0.33700
H1198       H  0.73171567  0.71275215  0.83689178     0.30400
H1199       H  0.61078049  0.64633663  0.88513002     0.38300
H1200       H  0.62325972  0.68088085  0.89386328     0.33700
C1201       C  0.78567439  0.12800471  0.75597887    -0.20000
C1202       C  0.79191548  0.15391669  0.76559290     0.36200
C1203       C  0.82169689  0.18097014  0.76539067    -0.26000
C1204       C  0.84516638  0.18286523  0.75568430     0.02600
C1205       C  0.83939975  0.15694069  0.74662831     0.27500
C1206       C  0.80974055  0.12968723  0.74696755    -0.25100
N1207       N  0.76818343  0.15298051  0.77539362    -0.82500
H1208       H  0.82656159  0.20100583  0.77250725     0.13300
C1209       C  0.87547466  0.21254062  0.75473909     0.02600
N1210       N  0.86352084  0.15863345  0.73681445    -0.81100
H1211       H  0.80526680  0.10994631  0.73969534     0.18100
C1212       C  0.90093834  0.21531805  0.76246859    -0.25900
C1213       C  0.92993779  0.24343636  0.76232317     0.36100
C1214       C  0.93349036  0.26916420  0.75395413    -0.19900
C1215       C  0.90780289  0.26616004  0.74618810    -0.25200
C1216       C  0.87883900  0.23807117  0.74645070     0.27500
H1217       H  0.89797630  0.19556640  0.76896159     0.13200
N1218       N  0.95550007  0.24597562  0.77095757    -0.82500
H1219       H  0.91033781  0.28573296  0.73974231     0.18100
N1220       N  0.85281831  0.23525381  0.73827977    -0.81100
H1221       H  0.94903910  0.22476207  0.77604489     0.33700
H1222       H  0.96177808  0.26034086  0.78218777     0.38200
H1223       H  0.85912179  0.25621710  0.73284785     0.33700
H1224       H  0.84553055  0.22008027  0.72738267     0.30400
H1225       H  0.85553202  0.13747865  0.73098680     0.33700
H1226       H  0.86990838  0.17405723  0.72608790     0.30400
H1227       H  0.75353160  0.15271161  0.76581259     0.38300
H1228       H  0.77735197  0.17302065  0.78291691     0.33700
C1229       C  0.70810621  0.84129253  0.74075050    -0.20000
C1230       C  0.73275525  0.87201881  0.73720182     0.36200
C1231       C  0.72805415  0.89521837  0.73843847    -0.26000
C1232       C  0.69950801  0.88862669  0.74343584     0.02600
C1233       C  0.67494938  0.85806622  0.74707154     0.27500
C1234       C  0.67938659  0.83471803  0.74544993    -0.25100
N1235       N  0.76245030  0.87967708  0.73234899    -0.82500
H1236       H  0.74682312  0.91869680  0.73550181     0.13300
C1237       C  0.69603195  0.91415979  0.74516438     0.02600
N1238       N  0.64582414  0.85096245  0.75280287    -0.81100
H1239       H  0.66046280  0.81131430  0.74838245     0.18100
C1240       C  0.67361467  0.91385006  0.73491645    -0.25900
C1241       C  0.67068842  0.93835126  0.73567494     0.36100
C1242       C  0.69046738  0.96358035  0.74712743    -0.19900
C1243       C  0.71263936  0.96355301  0.75746666    -0.25200
C1244       C  0.71553024  0.93916203  0.75668341     0.27500
H1245       H  0.65885369  0.89473541  0.72594196     0.13200
N1246       N  0.64822603  0.93788546  0.72457022    -0.82500
H1247       H  0.72787227  0.98269946  0.76630800     0.18100
N1248       N  0.73815974  0.93961556  0.76761600    -0.81100
H1249       H  0.63510412  0.91736104  0.71734212     0.33700
H1250       H  0.66005246  0.95529670  0.71489284     0.38200
H1251       H  0.75087321  0.95975645  0.77522467     0.33700
H1252       H  0.72651011  0.92155343  0.77690852     0.30400
H1253       H  0.63017843  0.82742601  0.75496097     0.33700
H1254       H  0.64913798  0.86150992  0.76535813     0.30400
H1255       H  0.76033490  0.86995191  0.71966224     0.38300
H1256       H  0.77817112  0.90334186  0.73075190     0.33700
C1257       C  0.65912249  0.06086260  0.79917116    -0.20000
C1258       C  0.65999110  0.08770514  0.80100118     0.36200
C1259       C  0.66001083  0.09832167  0.81844399    -0.26000
C1260       C  0.65890638  0.08270012  0.83408444     0.02600
C1261       C  0.65615376  0.05502773  0.83231737     0.27500
C1262       C  0.65617158  0.04434168  0.81490264    -0.25100
N1263       N  0.66243609  0.10501367  0.78528456    -0.82500
H1264       H  0.66187960  0.11947175  0.81991191     0.13300
C1265       C  0.66345761  0.09701912  0.85215388     0.02600
N1266       N  0.65466109  0.03857765  0.84823704    -0.81100
H1267       H  0.65536154  0.02373484  0.81368030     0.18100
C1268       C  0.64001472  0.08281311  0.86508504    -0.25900
C1269       C  0.64411153  0.09575896  0.88235977     0.36100
C1270       C  0.67239882  0.12346085  0.88713701    -0.19900
C1271       C  0.69569441  0.13762623  0.87383151    -0.25200
C1272       C  0.69155600  0.12465972  0.85656971     0.27500
H1273       H  0.61830750  0.06157145  0.86172076     0.13200
N1274       N  0.61929544  0.08063010  0.89505310    -0.82500
H1275       H  0.71739605  0.15893830  0.87639678     0.18100
N1276       N  0.71597380  0.13938046  0.84347481    -0.81100
H1277       H  0.60044144  0.07878419  0.88918326     0.33700
H1278       H  0.61338390  0.05851818  0.89721895     0.38200
H1279       H  0.73516480  0.15972545  0.84867607     0.33700
H1280       H  0.72274395  0.12486442  0.84110513     0.30400
H1281       H  0.65261660  0.01861476  0.84462105     0.33700
H1282       H  0.67551142  0.05235303  0.85516498     0.30400
H1283       H  0.64186099  0.09164379  0.77804730     0.38300
H1284       H  0.66437658  0.12485443  0.78909116     0.33700
C1285       C  0.67390893  0.06593072  0.69505062    -0.20000
C1286       C  0.64457215  0.05171624  0.68698930     0.36200
C1287       C  0.64206856  0.06094368  0.66950240    -0.26000
C1288       C  0.66821146  0.08373712  0.65993227     0.02600
C1289       C  0.69740614  0.09746681  0.66777380     0.27500
C1290       C  0.69993714  0.08861965  0.68522644    -0.25100
N1291       N  0.61751729  0.02805498  0.69645329    -0.82500
H1292       H  0.61969525  0.05037217  0.66328301     0.13300
C1293       C  0.66520983  0.09336919  0.64164547     0.02600
N1294       N  0.72441139  0.12030386  0.65788927    -0.81100
H1295       H  0.72256382  0.09963288  0.69115861     0.18100
C1296       C  0.67340207  0.12313497  0.63920527    -0.25900
C1297       C  0.67383530  0.13426557  0.62187445     0.36100
C1298       C  0.66679326  0.11568977  0.60635400    -0.19900
C1299       C  0.65688357  0.08511555  0.60911831    -0.25200
C1300       C  0.65623013  0.07391494  0.62656192     0.27500
H1301       H  0.67984156  0.13798709  0.65086163     0.13200
N1302       N  0.68159375  0.16464983  0.62010363    -0.82500
H1303       H  0.64927237  0.06941995  0.59793638     0.18100
N1304       N  0.64686776  0.04296823  0.62900928    -0.81100
H1305       H  0.66594282  0.16596600  0.62771739     0.33700
H1306       H  0.70342014  0.17992224  0.62568390     0.38200
H1307       H  0.64062970  0.03144202  0.61659050     0.33700
H1308       H  0.66587247  0.04391245  0.63373840     0.30400
H1309       H  0.74416333  0.12835701  0.66560804     0.33700
H1310       H  0.72589376  0.10971653  0.64646480     0.30400
H1311       H  0.61855874  0.00920719  0.69760650     0.38300
H1312       H  0.59785907  0.02072250  0.68881662     0.33700
C1313       C  0.65856054  0.10478826  0.53672059    -0.20000
C1314       C  0.63646323  0.07263473  0.53530908     0.36200
C1315       C  0.63149279  0.05813932  0.51849963    -0.26000
C1316       C  0.64763214  0.07479351  0.50294911     0.02600
C1317       C  0.66936619  0.10676064  0.50421886     0.27500
C1318       C  0.67439972  0.12140772  0.52102323    -0.25100
N1319       N  0.61847410  0.05475624  0.55073824    -0.82500
H1320       H  0.61428612  0.03368129  0.51739452     0.13300
C1321       C  0.64026821  0.05846921  0.48530717     0.02600
N1322       N  0.68637011  0.12418306  0.48844420    -0.81100
H1323       H  0.69109528  0.14591202  0.52184760     0.18100
C1324       C  0.63012856  0.06744867  0.47071276    -0.25900
C1325       C  0.62066647  0.05116565  0.45431838     0.36100
C1326       C  0.62116890  0.02530716  0.45240425    -0.19900
C1327       C  0.63172728  0.01653909  0.46685840    -0.25200
C1328       C  0.64155089  0.03300921  0.48325253     0.27500
H1329       H  0.62858984  0.08663481  0.47225313     0.13200
N1330       N  0.60917314  0.06009891  0.43997335    -0.82500
H1331       H  0.63206479  0.99660867  0.46537340     0.18100
N1332       N  0.65255344  0.02386600  0.49787451    -0.81100
H1333       H  0.59063773  0.05962112  0.44498635     0.33700
H1334       H  0.62643192  0.08269135  0.43638472     0.38200
H1335       H  0.65191623  0.00466387  0.49420709     0.33700
H1336       H  0.67560117  0.04165142  0.50006067     0.30400
H1337       H  0.70140757  0.14742065  0.49161929     0.33700
H1338       H  0.69992418  0.11689041  0.48448690     0.30400
H1339       H  0.60468593  0.06187348  0.55438042     0.38300
H1340       H  0.60362695  0.03156411  0.54739503     0.33700
C1341       C  0.52694391  0.95966090  0.43461986    -0.20000
C1342       C  0.49834051  0.93354232  0.42915604     0.36200
C1343       C  0.47164912  0.93230314  0.43209870    -0.26000
C1344       C  0.47325004  0.95721878  0.43974627     0.02600
C1345       C  0.50166972  0.98204967  0.44679732     0.27500
C1346       C  0.52813299  0.98270341  0.44437621    -0.25100
N1347       N  0.49664943  0.90876743  0.42025986    -0.82500
H1348       H  0.44973958  0.91264937  0.42737626     0.13300
C1349       C  0.44615252  0.95864687  0.43844991     0.02600
N1350       N  0.50401579  0.00741071  0.45535401    -0.81100
H1351       H  0.55020235  0.00258852  0.44868330     0.18100
C1352       C  0.43604482  0.96575457  0.45381575    -0.25900
C1353       C  0.41371836  0.97176030  0.45249848     0.36100
C1354       C  0.40025480  0.96986190  0.43546545    -0.19900
C1355       C  0.40865604  0.96012474  0.42041180    -0.25200
C1356       C  0.43171723  0.95515564  0.42158760     0.27500
H1357       H  0.44635114  0.96772839  0.46691888     0.13200
N1358       N  0.40584891  0.98069133  0.46851764    -0.82500
H1359       H  0.39758321  0.95682603  0.40743016     0.18100
N1360       N  0.44111701  0.94747559  0.40553876    -0.81100
H1361       H  0.39695162  0.96283926  0.47794303     0.33700
H1362       H  0.42601589  0.99971831  0.47402780     0.38200
H1363       H  0.42796624  0.94536437  0.39431280     0.33700
H1364       H  0.46372744  0.96572387  0.40273015     0.30400
H1365       H  0.52638366  0.02349268  0.45995463     0.33700
H1366       H  0.49947477  0.01840824  0.44548913     0.30400
H1367       H  0.50761004  0.91672603  0.40771505     0.38300
H1368       H  0.47383285  0.89094430  0.41747489     0.33700
C1369       C  0.42473484  0.14429403  0.60191750    -0.20000
C1370       C  0.39887350  0.13917923  0.61093422     0.36200
C1371       C  0.39264921  0.12813574  0.62883894    -0.26000
C1372       C  0.41104457  0.12109347  0.63775541     0.02600
C1373       C  0.43543326  0.12381838  0.62834326     0.27500
C1374       C  0.44221417  0.13565913  0.61049187    -0.25100
N1375       N  0.37904718  0.14526808  0.60184593    -0.82500
H1376       H  0.37335359  0.12506751  0.63596136     0.13300
C1377       C  0.40351181  0.11038018  0.65684811     0.02600
N1378       N  0.45283736  0.11418162  0.63680199    -0.81100
H1379       H  0.46180618  0.13915734  0.60351410     0.18100
C1380       C  0.37899714  0.07998539  0.66025226    -0.25900
C1381       C  0.36701924  0.07012496  0.67785406     0.36100
C1382       C  0.37992561  0.09122163  0.69240750    -0.19900
C1383       C  0.40561137  0.12127870  0.68907660    -0.25200
C1384       C  0.41728028  0.13119180  0.67140944     0.27500
H1385       H  0.36834672  0.06422721  0.64895786     0.13200
N1386       N  0.34124378  0.03902153  0.68085678    -0.82500
H1387       H  0.41548414  0.13765402  0.70009948     0.18100
N1388       N  0.44162912  0.16276339  0.66802253    -0.81100
H1389       H  0.33417361  0.02671394  0.66869838     0.33700
H1390       H  0.34861231  0.02874409  0.68933628     0.38200
H1391       H  0.44839125  0.17534126  0.68007531     0.33700
H1392       H  0.46064092  0.16373611  0.66347447     0.30400
H1393       H  0.46947276  0.11705014  0.62788341     0.33700
H1394       H  0.46463867  0.12850749  0.64785336     0.30400
H1395       H  0.36910605  0.13035029  0.59080054     0.38300
H1396       H  0.36106363  0.14026617  0.61033036     0.33700
C1397       C  0.36653988  0.02272341  0.46440314    -0.20000
C1398       C  0.34739227  0.03041954  0.47153834     0.36200
C1399       C  0.35760818  0.05052039  0.48641425    -0.26000
C1400       C  0.38662812  0.06314675  0.49411935     0.02600
C1401       C  0.40577370  0.05550206  0.48696968     0.27500
C1402       C  0.39563783  0.03564579  0.47201424    -0.25100
N1403       N  0.31807157  0.01844539  0.46331531    -0.82500
H1404       H  0.34323166  0.05692301  0.49178614     0.13300
C1405       C  0.39760971  0.08614569  0.50876818     0.02600
N1406       N  0.43579926  0.06879802  0.49454201    -0.81100
H1407       H  0.41104510  0.03143595  0.46569789     0.18100
C1408       C  0.38960058  0.07652518  0.52685659    -0.25900
C1409       C  0.39949476  0.09795953  0.54101358     0.36100
C1410       C  0.41793456  0.12955641  0.53691901    -0.19900
C1411       C  0.42566932  0.13898259  0.51873789    -0.25200
C1412       C  0.41567314  0.11762562  0.50463979     0.27500
H1413       H  0.37548416  0.05223983  0.52988478     0.13200
N1414       N  0.39047232  0.08776943  0.55942772    -0.82500
H1415       H  0.44010512  0.16319219  0.51553024     0.18100
N1416       N  0.42342043  0.12772776  0.48610346    -0.81100
H1417       H  0.37682990  0.06385932  0.56010919     0.33700
H1418       H  0.37678874  0.09475212  0.56368420     0.38200
H1419       H  0.43612657  0.15159416  0.48532513     0.33700
H1420       H  0.43772893  0.12176003  0.48143500     0.30400
H1421       H  0.44715566  0.06114489  0.48756904     0.33700
H1422       H  0.43296241  0.06081381  0.50787613     0.30400
H1423       H  0.30448360  0.99468958  0.46506937     0.38300
H1424       H  0.30696895  0.02662068  0.47001334     0.33700
C1425       C  0.50709719  0.18034674  0.56355033    -0.20000
C1426       C  0.53315032  0.19725606  0.57482514     0.36200
C1427       C  0.55730470  0.19400276  0.57278389    -0.26000
C1428       C  0.55576146  0.17406160  0.55975338     0.02600
C1429       C  0.52989939  0.15771893  0.54820299     0.27500
C1430       C  0.50572805  0.16083188  0.55034752    -0.25100
N1431       N  0.53446912  0.21679725  0.58867898    -0.82500
H1432       H  0.57685944  0.20611176  0.58187146     0.13300
C1433       C  0.57960660  0.16791779  0.55972893     0.02600
N1434       N  0.52822018  0.13782696  0.53445670    -0.81100
H1435       H  0.48571720  0.14804346  0.54163163     0.18100
C1436       C  0.57028415  0.13773839  0.56241972    -0.25900
C1437       C  0.59176246  0.13080170  0.56410778     0.36100
C1438       C  0.62334397  0.15458276  0.56354755    -0.19900
C1439       C  0.63287594  0.18465364  0.56004470    -0.25200
C1440       C  0.61122423  0.19158811  0.55809912     0.27500
H1441       H  0.54607372  0.11954160  0.56366156     0.13200
N1442       N  0.58168940  0.09965290  0.56655722    -0.82500
H1443       H  0.65718881  0.20283044  0.55952268     0.18100
N1444       N  0.62114621  0.22251276  0.55477939    -0.81100
H1445       H  0.55775434  0.08492010  0.56700924     0.33700
H1446       H  0.58835578  0.09369433  0.55499847     0.38200
H1447       H  0.64506694  0.23716087  0.55402034     0.33700
H1448       H  0.61275850  0.22302710  0.54203144     0.30400
H1449       H  0.50763940  0.12734867  0.52719601     0.33700
H1450       H  0.54588453  0.15143707  0.52520578     0.30400
H1451       H  0.51696441  0.20289812  0.59796872     0.38300
H1452       H  0.55512574  0.22751209  0.59587391     0.33700
C1453       C  0.16062013  0.77160206  0.43185042    -0.20000
C1454       C  0.16507744  0.78569289  0.44883614     0.36200
C1455       C  0.19358075  0.81322846  0.45289237    -0.26000
C1456       C  0.21747551  0.82728756  0.44015163     0.02600
C1457       C  0.21351097  0.81232562  0.42353165     0.27500
C1458       C  0.18524214  0.78456360  0.41965229    -0.25100
N1459       N  0.14008117  0.77328096  0.46135383    -0.82500
H1460       H  0.19666579  0.82468256  0.46565314     0.13300
C1461       C  0.24503116  0.85910284  0.44333372     0.02600
N1462       N  0.23771153  0.82603112  0.41031214    -0.81100
H1463       H  0.18191391  0.77358086  0.40667058     0.18100
C1464       C  0.27450297  0.86557838  0.44246853    -0.25900
C1465       C  0.30089819  0.89599927  0.44210089     0.36100
C1466       C  0.29766199  0.92031067  0.44277492    -0.19900
C1467       C  0.26842637  0.91382406  0.44506651    -0.25200
C1468       C  0.24204577  0.88351599  0.44522998     0.27500
H1469       H  0.27678317  0.84683798  0.44116033     0.13200
N1470       N  0.33067313  0.90225266  0.43964298    -0.82500
H1471       H  0.26606035  0.93260078  0.44540775     0.18100
N1472       N  0.21216807  0.87754559  0.44619996    -0.81100
H1473       H  0.32893929  0.88185486  0.43845901     0.33700
H1474       H  0.34334178  0.91290790  0.45144702     0.38200
H1475       H  0.21400028  0.89795819  0.44765755     0.33700
H1476       H  0.20110689  0.86808039  0.43379661     0.30400
H1477       H  0.23119910  0.81198051  0.39890533     0.33700
H1478       H  0.24110280  0.84635193  0.40586911     0.30400
H1479       H  0.12431424  0.77644338  0.45544923     0.38300
H1480       H  0.14733056  0.78586599  0.47340908     0.33700
C1481       C  0.01193846  0.72312630  0.70237608    -0.20000
C1482       C  0.03168909  0.74373650  0.68862629     0.36200
C1483       C  0.02661155  0.73395871  0.67045688    -0.26000
C1484       C  0.00282517  0.70392891  0.66579377     0.02600
C1485       C  0.98467150  0.68267039  0.67955736     0.27500
C1486       C  0.98947186  0.69244887  0.69774919    -0.25100
N1487       N  0.05644892  0.77467268  0.69307241    -0.82500
H1488       H  0.04071141  0.75002513  0.65979389     0.13300
C1489       C  0.99523673  0.69583248  0.64637423     0.02600
N1490       N  0.96091602  0.65147164  0.67492362    -0.81100
H1491       H  0.97453539  0.67641835  0.70819522     0.18100
C1492       C  0.00730199  0.68244383  0.63695590    -0.25900
C1493       C  0.99895695  0.67305395  0.61876331     0.36100
C1494       C  0.97663927  0.67556672  0.61010271    -0.19900
C1495       C  0.96722483  0.69194408  0.61924402    -0.25200
C1496       C  0.97599452  0.70172463  0.63725930     0.27500
H1497       H  0.02315359  0.67918112  0.64387384     0.13200
N1498       N  0.01256205  0.66033088  0.60924734    -0.82500
H1499       H  0.95311011  0.69756570  0.61257270     0.18100
N1500       N  0.96535789  0.71760779  0.64640744    -0.81100
H1501       H  0.02585009  0.67539684  0.59873514     0.33700
H1502       H  0.02762992  0.65918390  0.61771303     0.38200
H1503       H  0.95175798  0.72066446  0.63775297     0.33700
H1504       H  0.95119115  0.70368779  0.65706279     0.30400
H1505       H  0.94986458  0.63865039  0.68662184     0.33700
H1506       H  0.94440741  0.65147637  0.66725437     0.30400
H1507       H  0.06846702  0.78684290  0.68139533     0.38300
H1508       H  0.07189383  0.77367355  0.70125971     0.33700
C1509       C  0.98893883  0.67164709  0.54149734    -0.20000
C1510       C  0.02013689  0.68276978  0.54005577     0.36200
C1511       C  0.03420266  0.69027206  0.52292634    -0.26000
C1512       C  0.01765907  0.68659521  0.50714735     0.02600
C1513       C  0.98663234  0.67564056  0.50843538     0.27500
C1514       C  0.97262387  0.66835029  0.52557978    -0.25100
N1515       N  0.03734923  0.68531419  0.55577002    -0.82500
H1516       H  0.05800577  0.69838116  0.52189019     0.13300
C1517       C  0.03274683  0.69309098  0.48926902     0.02600
N1518       N  0.96928547  0.67117917  0.49228014    -0.81100
H1519       H  0.94872627  0.65986526  0.52644761     0.18100
C1520       C  0.03174334  0.66959156  0.48019351    -0.25900
C1521       C  0.04648823  0.67502445  0.46340205     0.36100
C1522       C  0.06190837  0.70435299  0.45543432    -0.19900
C1523       C  0.06174651  0.72746376  0.46417571    -0.25200
C1524       C  0.04793853  0.72233610  0.48127492     0.27500
H1525       H  0.01975265  0.64708404  0.48637268     0.13200
N1526       N  0.04532532  0.65075162  0.45424723    -0.82500
H1527       H  0.07259938  0.74960785  0.45772168     0.18100
N1528       N  0.04982138  0.74679208  0.49073206    -0.81100
H1529       H  0.03141285  0.63014797  0.46134769     0.33700
H1530       H  0.06743130  0.65603975  0.45463117     0.38200
H1531       H  0.06242739  0.76705815  0.48318068     0.33700
H1532       H  0.02763479  0.74116424  0.49184088     0.30400
H1533       H  0.94658220  0.66238205  0.49554005     0.33700
H1534       H  0.97861288  0.69262520  0.48637084     0.30400
H1535       H  0.04544222  0.67184687  0.55371164     0.38300
H1536       H  0.05634879  0.70809919  0.55685566     0.33700
C1537       C  0.96733026  0.40075931  0.61035000    -0.20000
C1538       C  0.94922593  0.39432231  0.62603008     0.36200
C1539       C  0.96036346  0.39408770  0.64325362    -0.26000
C1540       C  0.98967463  0.40075111  0.64547276     0.02600
C1541       C  0.00838277  0.40820620  0.63010107     0.27500
C1542       C  0.99704207  0.40793532  0.61277565    -0.25100
N1543       N  0.91923697  0.38779169  0.62451720    -0.82500
H1544       H  0.94570249  0.38809039  0.65496270     0.13300
C1545       C  0.99969218  0.39795247  0.66379197     0.02600
N1546       N  0.03894221  0.41610078  0.63216997    -0.81100
H1547       H  0.01203857  0.41365319  0.60143445     0.18100
C1548       C  0.00897080  0.37844462  0.66604848    -0.25900
C1549       C  0.01706221  0.37357626  0.68316811     0.36100
C1550       C  0.01479059  0.38776108  0.69865470    -0.19900
C1551       C  0.00632197  0.40802104  0.69630317    -0.25200
C1552       C  0.99894419  0.41341220  0.67901512     0.27500
H1553       H  0.00941869  0.36648865  0.65436816     0.13200
N1554       N  0.02709115  0.35386578  0.68481650    -0.82500
H1555       H  0.00477656  0.41918833  0.70802769     0.18100
N1556       N  0.99040565  0.43425781  0.67686880    -0.81100
H1557       H  0.02650707  0.34458911  0.67223102     0.33700
H1558       H  0.05009116  0.36744977  0.68886772     0.38200
H1559       H  0.99083522  0.44363628  0.68937945     0.33700
H1560       H  0.00702724  0.45243365  0.66875763     0.30400
H1561       H  0.04976332  0.42081384  0.61957983     0.33700
H1562       H  0.05159129  0.43632976  0.63970263     0.30400
H1563       H  0.90343420  0.36610319  0.63005632     0.38300
H1564       H  0.91880939  0.40383621  0.63227915     0.33700
C1565       C  0.88010336  0.34039959  0.56578747    -0.20000
C1566       C  0.85642950  0.34220885  0.55905080     0.36200
C1567       C  0.82683697  0.31528502  0.55645837    -0.26000
C1568       C  0.82022822  0.28646775  0.56072382     0.02600
C1569       C  0.84403387  0.28448055  0.56694760     0.27500
C1570       C  0.87373573  0.31137303  0.56914317    -0.25100
N1571       N  0.86177522  0.37129575  0.55575180    -0.82500
H1572       H  0.80862378  0.31695895  0.55172772     0.13300
C1573       C  0.78796560  0.25879264  0.56022305     0.02600
N1574       N  0.83769093  0.25525682  0.57169986    -0.81100
H1575       H  0.89183071  0.30971268  0.57412689     0.18100
C1576       C  0.78009959  0.23384289  0.54923613    -0.25900
C1577       C  0.75101460  0.20584278  0.55049582     0.36100
C1578       C  0.72920457  0.20284129  0.56263481    -0.19900
C1579       C  0.73651608  0.22817306  0.57297317    -0.25200
C1580       C  0.76575580  0.25606684  0.57201708     0.27500
H1581       H  0.79708083  0.23570933  0.54023441     0.13200
N1582       N  0.74435926  0.18003062  0.54023277    -0.82500
H1583       H  0.71986806  0.22557661  0.58258424     0.18100
N1584       N  0.77347975  0.28110422  0.58363483    -0.81100
H1585       H  0.76046046  0.17565410  0.54374266     0.33700
H1586       H  0.74728467  0.18603244  0.52648739     0.38200
H1587       H  0.75459696  0.27538573  0.59147652     0.33700
H1588       H  0.79037188  0.28469389  0.59271445     0.30400
H1589       H  0.85767785  0.25774442  0.57603065     0.33700
H1590       H  0.82279284  0.24673164  0.58279902     0.30400
H1591       H  0.85644813  0.37200441  0.54216533     0.38300
H1592       H  0.84676411  0.37287910  0.56386588     0.33700
C1593       C  0.93746877  0.58345770  0.57065095    -0.20000
C1594       C  0.96261180  0.58148962  0.57242584     0.36200
C1595       C  0.95808694  0.55314578  0.57014520    -0.26000
C1596       C  0.92899163  0.52672888  0.56612337     0.02600
C1597       C  0.90404312  0.52879846  0.56373031     0.27500
C1598       C  0.90859325  0.55732937  0.56586527    -0.25100
N1599       N  0.99259010  0.60829169  0.57673048    -0.82500
H1600       H  0.97717587  0.55142737  0.57198608     0.13300
C1601       C  0.92503693  0.49693426  0.56587312     0.02600
N1602       N  0.87419143  0.50183554  0.55946936    -0.81100
H1603       H  0.88943466  0.55901352  0.56441174     0.18100
C1604       C  0.90926742  0.47627910  0.58018934    -0.25900
C1605       C  0.90988058  0.45055769  0.58240465     0.36100
C1606       C  0.92653949  0.44546668  0.57001644    -0.19900
C1607       C  0.94023553  0.46474562  0.55489589    -0.25200
C1608       C  0.93989611  0.49068800  0.55279328     0.27500
H1609       H  0.89778347  0.48111392  0.59016494     0.13200
N1610       N  0.89453599  0.43009502  0.59749749    -0.82500
H1611       H  0.95276417  0.46060020  0.54532259     0.18100
N1612       N  0.95552897  0.51138933  0.53785028    -0.81100
H1613       H  0.88345619  0.43710530  0.60539471     0.33700
H1614       H  0.87743999  0.40861336  0.59224044     0.38200
H1615       H  0.96556709  0.50370989  0.52953651     0.33700
H1616       H  0.93902503  0.51104495  0.52995116     0.30400
H1617       H  0.85829024  0.50718094  0.55822888     0.33700
H1618       H  0.87555648  0.49415735  0.54673899     0.30400
H1619       H  0.99952742  0.62344750  0.56581706     0.38300
H1620       H  0.00849257  0.60292251  0.57776556     0.33700
C1621       C  0.07430332  0.45475647  0.46455751    -0.20000
C1622       C  0.06585700  0.42862364  0.47496537     0.36200
C1623       C  0.04384002  0.41833049  0.48883910    -0.26000
C1624       C  0.02956083  0.43306037  0.49217290     0.02600
C1625       C  0.03580454  0.45716445  0.48078436     0.27500
C1626       C  0.05803738  0.46775709  0.46716668    -0.25100
N1627       N  0.07958914  0.41266232  0.47148396    -0.82500
H1628       H  0.03850303  0.39939597  0.49746685     0.13300
C1629       C  0.01084329  0.42561556  0.50876308     0.02600
N1630       N  0.02011659  0.47139944  0.48351089    -0.81100
H1631       H  0.06337305  0.48716693  0.45913906     0.18100
C1632       C  0.02246282  0.44768150  0.52252182    -0.25900
C1633       C  0.00618626  0.44198107  0.53867669     0.36100
C1634       C  0.97769718  0.41354428  0.54114056    -0.19900
C1635       C  0.96558256  0.39168734  0.52721550    -0.25200
C1636       C  0.98203117  0.39742220  0.51100188     0.27500
H1637       H  0.04451745  0.46939627  0.52066139     0.13200
N1638       N  0.01848439  0.46489867  0.55264098    -0.82500
H1639       H  0.94363671  0.36991450  0.52919130     0.18100
N1640       N  0.96974373  0.37483702  0.49686949    -0.81100
H1641       H  0.03970221  0.48447258  0.54872718     0.33700
H1642       H  0.00364693  0.47151756  0.55407207     0.38200
H1643       H  0.94840677  0.35532459  0.50068139     0.33700
H1644       H  0.96588847  0.38399300  0.48551569     0.30400
H1645       H  0.02749353  0.48906013  0.47412548     0.33700
H1646       H  0.99682592  0.45491219  0.48090333     0.30400
H1647       H  0.07323039  0.40370006  0.45835986     0.38300
H1648       H  0.07084455  0.39402568  0.48030256     0.33700
C1649       C  0.12982070  0.54874332  0.43848102    -0.20000
C1650       C  0.11825794  0.55644402  0.45288699     0.36200
C1651       C  0.11416660  0.57995200  0.45042590    -0.26000
C1652       C  0.12196926  0.59605059  0.43396195     0.02600
C1653       C  0.13458387  0.58904910  0.41980684     0.27500
C1654       C  0.13860382  0.56554460  0.42227888    -0.25100
N1655       N  0.11073800  0.54038298  0.46988159    -0.82500
H1656       H  0.10477471  0.58569774  0.46130333     0.13300
C1657       C  0.11638228  0.61989953  0.43154084     0.02600
N1658       N  0.14292858  0.60563209  0.40294853    -0.81100
H1659       H  0.14776700  0.55963806  0.41134302     0.18100
C1660       C  0.14034084  0.65065284  0.43463025    -0.25900
C1661       C  0.13611681  0.67400778  0.43182920     0.36100
C1662       C  0.10740565  0.66630769  0.42570727    -0.19900
C1663       C  0.08339562  0.63543393  0.42275262    -0.25200
C1664       C  0.08754258  0.61210617  0.42574437     0.27500
H1665       H  0.16245339  0.65640530  0.43905998     0.13200
N1666       N  0.16102456  0.70548848  0.43476872    -0.82500
H1667       H  0.06126005  0.62953823  0.41824619     0.18100
N1668       N  0.06261091  0.58054239  0.42303517    -0.81100
H1669       H  0.16669456  0.71665159  0.42220958     0.33700
H1670       H  0.18051598  0.70722099  0.43935462     0.38200
H1671       H  0.04277850  0.57865853  0.41905677     0.33700
H1672       H  0.06846212  0.57221665  0.41227100     0.30400
H1673       H  0.15214031  0.59784432  0.39401359     0.33700
H1674       H  0.12283099  0.60072908  0.39687556     0.30400
H1675       H  0.13104138  0.54501846  0.47545732     0.38300
H1676       H  0.10233901  0.54869781  0.47904842     0.33700
C1677       C  0.41189243  0.41420841  0.61218871    -0.20000
C1678       C  0.38427228  0.38703299  0.61832114     0.36200
C1679       C  0.37410228  0.38542170  0.63614186    -0.26000
C1680       C  0.38968866  0.41078471  0.64776779     0.02600
C1681       C  0.41522734  0.43875533  0.64117228     0.27500
C1682       C  0.42588797  0.44026677  0.62351891    -0.25100
N1683       N  0.36708975  0.36076856  0.60665600    -0.82500
H1684       H  0.35406990  0.36402384  0.64110781     0.13300
C1685       C  0.37906928  0.40752612  0.66683583     0.02600
N1686       N  0.43028995  0.46555884  0.65247132    -0.81100
H1687       H  0.44499869  0.46226135  0.61882570     0.18100
C1688       C  0.39960855  0.41494778  0.68124225    -0.25900
C1689       C  0.38978663  0.40990953  0.69943330     0.36100
C1690       C  0.35854000  0.39642969  0.70322773    -0.19900
C1691       C  0.33834207  0.39005798  0.68881012    -0.25200
C1692       C  0.34833264  0.39581750  0.67071784     0.27500
H1693       H  0.42323678  0.42394439  0.67824578     0.13200
N1694       N  0.41107545  0.41695588  0.71389472    -0.82500
H1695       H  0.31443983  0.38009405  0.69165946     0.18100
N1696       N  0.32731776  0.38953317  0.65623165    -0.81100
H1697       H  0.43271190  0.42516071  0.70868151     0.33700
H1698       H  0.41379991  0.43495303  0.72133919     0.38200
H1699       H  0.30550848  0.38082818  0.66135646     0.33700
H1700       H  0.33505840  0.41037362  0.64995597     0.30400
H1701       H  0.44893021  0.48434881  0.64571769     0.33700
H1702       H  0.41466966  0.47094094  0.65490281     0.30400
H1703       H  0.34818387  0.34237521  0.61348275     0.38300
H1704       H  0.35825357  0.36646064  0.59600896     0.33700
C1705       C  0.45051392  0.23226851  0.56186733    -0.20000
C1706       C  0.42201469  0.22866063  0.56215862     0.36200
C1707       C  0.42118046  0.25439771  0.56201730    -0.26000
C1708       C  0.44825769  0.28402219  0.56189012     0.02600
C1709       C  0.47667009  0.28803907  0.56097898     0.27500
C1710       C  0.47757759  0.26229485  0.56088937    -0.25100
N1711       N  0.39373911  0.19876909  0.56326453    -0.82500
H1712       H  0.39926628  0.25121505  0.56287155     0.13300
C1713       C  0.44687428  0.31056583  0.56497503     0.02600
N1714       N  0.50460126  0.31843717  0.56065972    -0.81100
H1715       H  0.49977951  0.26638276  0.56065354     0.18100
C1716       C  0.45788330  0.32615055  0.58150883    -0.25900
C1717       C  0.45683423  0.35112866  0.58545228     0.36100
C1718       C  0.44432215  0.36072739  0.57256173    -0.19900
C1719       C  0.43369648  0.34540129  0.55585737    -0.25200
C1720       C  0.43468109  0.32022172  0.55196800     0.27500
H1721       H  0.46724773  0.31861829  0.59143793     0.13200
N1722       N  0.46866239  0.36689594  0.60245304    -0.82500
H1723       H  0.42396534  0.35265821  0.54601357     0.18100
N1724       N  0.42327505  0.30436130  0.53496914    -0.81100
H1725       H  0.47658859  0.35665035  0.61048208     0.33700
H1726       H  0.48771675  0.38899525  0.59956565     0.38200
H1727       H  0.41490550  0.31420381  0.52695284     0.33700
H1728       H  0.44181883  0.30740338  0.52796778     0.30400
H1729       H  0.52369798  0.31768270  0.56021456     0.33700
H1730       H  0.50472241  0.32892549  0.54861847     0.30400
H1731       H  0.38016369  0.19594577  0.55210628     0.38300
H1732       H  0.38233353  0.19769650  0.57505086     0.33700
C1733       C  0.70644329  0.67760168  0.59815848    -0.20000
C1734       C  0.70597919  0.66323362  0.61443068     0.36200
C1735       C  0.70003861  0.67179743  0.63100840    -0.26000
C1736       C  0.69391239  0.69396880  0.63167173     0.02600
C1737       C  0.69212607  0.70663222  0.61523423     0.27500
C1738       C  0.69840575  0.69829933  0.59863877    -0.25100
N1739       N  0.71168135  0.64008832  0.61405559    -0.82500
H1740       H  0.70124302  0.66189065  0.64355609     0.13300
C1741       C  0.69294351  0.70607259  0.64969827     0.02600
N1742       N  0.68446249  0.72830077  0.61553079    -0.81100
H1743       H  0.69795396  0.70868824  0.58609506     0.18100
C1744       C  0.71426476  0.73732155  0.65323521    -0.25900
C1745       C  0.71688825  0.74968601  0.67050970     0.36100
C1746       C  0.69809636  0.73018206  0.68494427    -0.19900
C1747       C  0.67587400  0.69899882  0.68119096    -0.25200
C1748       C  0.67301698  0.68679887  0.66371945     0.27500
H1749       H  0.72962688  0.75211886  0.64250825     0.13200
N1750       N  0.73906311  0.78195814  0.67341239    -0.82500
H1751       H  0.66114972  0.68390210  0.69201733     0.18100
N1752       N  0.65021826  0.65487952  0.66020137    -0.81100
H1753       H  0.72694859  0.79135854  0.67615772     0.33700
H1754       H  0.75166025  0.79271280  0.66161055     0.38200
H1755       H  0.63744589  0.64380868  0.67190244     0.33700
H1756       H  0.63492763  0.65337799  0.65059984     0.30400
H1757       H  0.68424832  0.73556999  0.60236629     0.33700
H1758       H  0.66209048  0.71691864  0.62046975     0.30400
H1759       H  0.69403812  0.62165325  0.60653853     0.38300
H1760       H  0.71050280  0.63179272  0.62713366     0.33700
C1761       C  0.77248497  0.65942010  0.55764484    -0.20000
C1762       C  0.77412588  0.64310713  0.54302296     0.36200
C1763       C  0.79825163  0.63943710  0.54234923    -0.26000
C1764       C  0.82153903  0.65262318  0.55548666     0.02600
C1765       C  0.82126908  0.67056582  0.56928184     0.27500
C1766       C  0.79728039  0.67421153  0.57002519    -0.25100
N1767       N  0.75096686  0.62970186  0.52908068    -0.82500
H1768       H  0.79897276  0.62628313  0.53149839     0.13300
C1769       C  0.84641900  0.64791191  0.55494279     0.02600
N1770       N  0.84530733  0.68476400  0.58270849    -0.81100
H1771       H  0.79861425  0.68899682  0.58041419     0.18100
C1772       C  0.87670721  0.67335094  0.55224062    -0.25900
C1773       C  0.90144084  0.67156136  0.55544890     0.36100
C1774       C  0.89604289  0.64359906  0.56123093    -0.19900
C1775       C  0.86574937  0.61746413  0.56244100    -0.25200
C1776       C  0.84077596  0.61937572  0.55943326     0.27500
H1777       H  0.88120630  0.69525199  0.54864188     0.13200
N1778       N  0.93187860  0.69886485  0.55347143    -0.82500
H1779       H  0.86160180  0.59609867  0.56699751     0.18100
N1780       N  0.80983656  0.59289297  0.56184457    -0.81100
H1781       H  0.94314383  0.70449493  0.56598779     0.33700
H1782       H  0.94371222  0.69452823  0.54426365     0.38200
H1783       H  0.80961654  0.57373766  0.56508705     0.33700
H1784       H  0.80065998  0.59693371  0.57301413     0.30400
H1785       H  0.84200381  0.69738750  0.59192383     0.33700
H1786       H  0.84385167  0.66730564  0.59017169     0.30400
H1787       H  0.75479363  0.61746310  0.51986862     0.38300
H1788       H  0.75308509  0.64754602  0.52170968     0.33700
C1789       C  0.65643470  0.59968156  0.56093485    -0.20000
C1790       C  0.64515363  0.57710012  0.54738902     0.36200
C1791       C  0.61508293  0.55051307  0.54861253    -0.26000
C1792       C  0.59615418  0.54638127  0.56311472     0.02600
C1793       C  0.60708388  0.56931800  0.57641100     0.27500
C1794       C  0.63720202  0.59574506  0.57521462    -0.25100
N1795       N  0.66387605  0.58148391  0.53217443    -0.82500
H1796       H  0.60649677  0.53302968  0.53826572     0.13300
C1797       C  0.56496830  0.51783462  0.56454240     0.02600
N1798       N  0.58752182  0.56554265  0.59108190    -0.81100
H1799       H  0.64582551  0.61320000  0.58558389     0.18100
C1800       C  0.55940671  0.49598656  0.57751327    -0.25900
C1801       C  0.52953498  0.47006255  0.58074005     0.36100
C1802       C  0.50488578  0.46589537  0.57061874    -0.19900
C1803       C  0.51061177  0.48741116  0.55731495    -0.25200
C1804       C  0.54053935  0.51342237  0.55414107     0.27500
H1805       H  0.57837570  0.49968551  0.58548745     0.13200
N1806       N  0.52415517  0.44809594  0.59430744    -0.82500
H1807       H  0.49158343  0.48480001  0.55007437     0.18100
N1808       N  0.54616174  0.53579719  0.54080295    -0.81100
H1809       H  0.54488960  0.45384698  0.59987935     0.33700
H1810       H  0.51204736  0.44929484  0.60494436     0.38200
H1811       H  0.52575674  0.52903781  0.53424528     0.33700
H1812       H  0.55386177  0.55612205  0.54764587     0.30400
H1813       H  0.59911998  0.58442506  0.59977005     0.33700
H1814       H  0.56926315  0.56510976  0.58547221     0.30400
H1815       H  0.66587397  0.56319482  0.53181238     0.38300
H1816       H  0.65252803  0.58072995  0.52035942     0.33700
C1817       C  0.60779657  0.80523035  0.44148284    -0.20000
C1818       C  0.59266685  0.81027271  0.42732584     0.36200
C1819       C  0.59244133  0.83620822  0.42763299    -0.26000
C1820       C  0.60570744  0.85714083  0.44187077     0.02600
C1821       C  0.61922698  0.85194226  0.45642629     0.27500
C1822       C  0.62033479  0.82628340  0.45606313    -0.25100
N1823       N  0.57644545  0.78944908  0.41256529    -0.82500
H1824       H  0.58144215  0.83996677  0.41660365     0.13300
C1825       C  0.60516887  0.88442874  0.44096099     0.02600
N1826       N  0.63099003  0.87225914  0.47175605    -0.81100
H1827       H  0.63043798  0.82282433  0.46759405     0.18100
C1828       C  0.57891687  0.88218383  0.44664407    -0.25900
C1829       C  0.57545994  0.90584076  0.44299329     0.36100
C1830       C  0.59861482  0.93211813  0.43352954    -0.19900
C1831       C  0.62559102  0.93493925  0.42876397    -0.25200
C1832       C  0.62900387  0.91126814  0.43225134     0.27500
H1833       H  0.56043811  0.86138854  0.45317532     0.13200
N1834       N  0.54768679  0.90225561  0.44793987    -0.82500
H1835       H  0.64362906  0.95528483  0.42166385     0.18100
N1836       N  0.65577371  0.91362021  0.42607803    -0.81100
H1837       H  0.54503480  0.89901096  0.46199212     0.33700
H1838       H  0.52936298  0.88247203  0.44169494     0.38200
H1839       H  0.67073287  0.93447689  0.41941365     0.33700
H1840       H  0.66751927  0.91377326  0.43750441     0.30400
H1841       H  0.63950482  0.86487017  0.48161959     0.33700
H1842       H  0.64958142  0.89369010  0.46735169     0.30400
H1843       H  0.55899065  0.76795860  0.41748714     0.38300
H1844       H  0.59122937  0.78790386  0.40430723     0.33700
C1845       C  0.64187759  0.73970484  0.46852795    -0.20000
C1846       C  0.65757277  0.72713252  0.46288861     0.36200
C1847       C  0.67099721  0.71888072  0.47584964    -0.26000
C1848       C  0.66948970  0.72327643  0.49447545     0.02600
C1849       C  0.65475830  0.73683529  0.50018064     0.27500
C1850       C  0.64116229  0.74493330  0.48716732    -0.25100
N1851       N  0.66069863  0.72343474  0.44398654    -0.82500
H1852       H  0.68267564  0.70891423  0.47133793     0.13300
C1853       C  0.68210233  0.71220297  0.50784444     0.02600
N1854       N  0.65310808  0.74172977  0.51917990    -0.81100
H1855       H  0.62921361  0.75461489  0.49165953     0.18100
C1856       C  0.70624025  0.73300246  0.51951566    -0.25900
C1857       C  0.71805980  0.72286781  0.53249511     0.36100
C1858       C  0.70546532  0.69143375  0.53376533    -0.19900
C1859       C  0.68147105  0.67070824  0.52211553    -0.25200
C1860       C  0.66969186  0.68074222  0.50914602     0.27500
H1861       H  0.71577176  0.75714352  0.51850584     0.13200
N1862       N  0.74255370  0.74422930  0.54446220    -0.82500
H1863       H  0.67174338  0.64652243  0.52326574     0.18100
N1864       N  0.64486239  0.65906832  0.49744403    -0.81100
H1865       H  0.74929346  0.76650658  0.54177815     0.33700
H1866       H  0.73399991  0.73902714  0.55770635     0.38200
H1867       H  0.63849582  0.63689187  0.50003273     0.33700
H1868       H  0.62589874  0.65919166  0.50063178     0.30400
H1869       H  0.64168979  0.75207869  0.52111839     0.33700
H1870       H  0.63982786  0.72026948  0.52546249     0.30400
H1871       H  0.68408892  0.73608832  0.44097441     0.38300
H1872       H  0.65124415  0.70033436  0.44165748     0.33700
C1873       C  0.30656164  0.47841130  0.43098801    -0.20000
C1874       C  0.29371409  0.47319126  0.44849425     0.36200
C1875       C  0.27088092  0.47814887  0.45168730    -0.26000
C1876       C  0.25959472  0.48695231  0.43759385     0.02600
C1877       C  0.27214630  0.49160904  0.42001487     0.27500
C1878       C  0.29578015  0.48792574  0.41704457    -0.25100
N1879       N  0.30319973  0.46207246  0.46283938    -0.82500
H1880       H  0.26146918  0.47464351  0.46519837     0.13300
C1881       C  0.23399637  0.49023474  0.44107915     0.02600
N1882       N  0.26042065  0.49944953  0.40509703    -0.81100
H1883       H  0.30571248  0.49233248  0.40362451     0.18100
C1884       C  0.23660466  0.51648472  0.43494326    -0.25900
C1885       C  0.21149384  0.51852717  0.43515501     0.36100
C1886       C  0.18339501  0.49489665  0.44338950    -0.19900
C1887       C  0.18144584  0.46908750  0.45018281    -0.25200
C1888       C  0.20611072  0.46639840  0.44898640     0.27500
H1889       H  0.25803197  0.53491981  0.42895669     0.13200
N1890       N  0.21430529  0.54397737  0.42623034    -0.82500
H1891       H  0.15991577  0.44969430  0.45536101     0.18100
N1892       N  0.20234880  0.43882594  0.45501142    -0.81100
H1893       H  0.23655004  0.55954452  0.42134181     0.33700
H1894       H  0.19990817  0.53550601  0.41486128     0.38200
H1895       H  0.18059347  0.42354156  0.46061006     0.33700
H1896       H  0.20362227  0.42809464  0.44359159     0.30400
H1897       H  0.27222760  0.50225602  0.39312914     0.33700
H1898       H  0.23763052  0.48095344  0.40296094     0.30400
H1899       H  0.29695572  0.44035352  0.45908923     0.38300
H1900       H  0.29140035  0.45920369  0.47482132     0.33700
C1901       C  0.41114694  0.41467965  0.54272205    -0.20000
C1902       C  0.37970561  0.39936672  0.53845767     0.36200
C1903       C  0.37081183  0.40444898  0.52156352    -0.26000
C1904       C  0.39275842  0.42441854  0.50865395     0.02600
C1905       C  0.42412328  0.43843683  0.51251102     0.27500
C1906       C  0.43287957  0.43330173  0.52937960    -0.25100
N1907       N  0.35669032  0.37820497  0.55107238    -0.82500
H1908       H  0.34665981  0.39326559  0.51869676     0.13300
C1909       C  0.38315140  0.43210264  0.49162988     0.02600
N1910       N  0.44704686  0.45816484  0.49930843    -0.81100
H1911       H  0.45697272  0.44455484  0.53218603     0.18100
C1912       C  0.39546237  0.46286521  0.48800120    -0.25900
C1913       C  0.38896172  0.47190389  0.47178923     0.36100
C1914       C  0.36894159  0.44974728  0.45876124    -0.19900
C1915       C  0.35598003  0.41871801  0.46258072    -0.25200
C1916       C  0.36289587  0.40968058  0.47884878     0.27500
H1917       H  0.41088518  0.48026653  0.49775053     0.13200
N1918       N  0.40399072  0.50389187  0.46844386    -0.82500
H1919       H  0.34053793  0.40146502  0.45278825     0.18100
N1920       N  0.34984133  0.37794502  0.48228590    -0.81100
H1921       H  0.42768023  0.51463648  0.46903107     0.33700
H1922       H  0.39811630  0.51280509  0.47884708     0.38200
H1923       H  0.33538010  0.36436732  0.47161501     0.33700
H1924       H  0.36780830  0.37539396  0.48259728     0.30400
H1925       H  0.46903596  0.46700944  0.50428834     0.33700
H1926       H  0.44373261  0.44479031  0.48802475     0.30400
H1927       H  0.34303200  0.35687020  0.54473082     0.38300
H1928       H  0.34283363  0.38558483  0.55401093     0.33700
C1929       C  0.41321885  0.53908261  0.43275123    -0.20000
C1930       C  0.44344051  0.54722572  0.43136774     0.36200
C1931       C  0.46816226  0.57715924  0.43540739    -0.26000
C1932       C  0.46338972  0.59898151  0.44111415     0.02600
C1933       C  0.43319583  0.59052039  0.44337036     0.27500
C1934       C  0.40825555  0.56042914  0.43922907    -0.25100
N1935       N  0.44887656  0.52506488  0.42572570    -0.82500
H1936       H  0.49137556  0.58377908  0.43363874     0.13300
C1937       C  0.49051185  0.63102485  0.44313052     0.02600
N1938       N  0.42809863  0.61263567  0.44955581    -0.81100
H1939       H  0.38499232  0.55388353  0.44048407     0.18100
C1940       C  0.49329594  0.65344049  0.43166067    -0.25900
C1941       C  0.52052345  0.68308790  0.43109913     0.36100
C1942       C  0.54542727  0.69041632  0.44232453    -0.19900
C1943       C  0.54243930  0.66816117  0.45406505    -0.25200
C1944       C  0.51504009  0.63854965  0.45472012     0.27500
H1945       H  0.47458492  0.64738514  0.42256067     0.13200
N1946       N  0.52326738  0.70544675  0.41877533    -0.82500
H1947       H  0.56148232  0.67398403  0.46279519     0.18100
N1948       N  0.51202131  0.61593669  0.46693425    -0.81100
H1949       H  0.50285742  0.69638903  0.41155149     0.33700
H1950       H  0.54004158  0.71066852  0.40922672     0.38200
H1951       H  0.53210473  0.62510467  0.47453152     0.33700
H1952       H  0.49464134  0.61020299  0.47615406     0.30400
H1953       H  0.40460718  0.60278935  0.45040286     0.33700
H1954       H  0.43686175  0.61891864  0.46274877     0.30400
H1955       H  0.43952107  0.50780655  0.43557271     0.38300
H1956       H  0.47237908  0.53481779  0.42530813     0.33700
C1957       C  0.62706136  0.73874944  0.40510941    -0.20000
C1958       C  0.65751116  0.75443429  0.39895055     0.36200
C1959       C  0.66308068  0.75035480  0.38094818    -0.26000
C1960       C  0.63879371  0.73172164  0.36882836     0.02600
C1961       C  0.60836820  0.71484777  0.37526769     0.27500
C1962       C  0.60285670  0.71816484  0.39348467    -0.25100
N1963       N  0.68260099  0.77476584  0.41090616    -0.82500
H1964       H  0.68645521  0.76300040  0.37603032     0.13300
C1965       C  0.64571756  0.73302531  0.34914835     0.02600
N1966       N  0.58320478  0.69569709  0.36308746    -0.81100
H1967       H  0.57950307  0.70618134  0.39830015     0.18100
C1968       C  0.63786454  0.70658922  0.33975452    -0.25900
C1969       C  0.64584262  0.70807457  0.32131569     0.36100
C1970       C  0.66250153  0.73669419  0.31234240    -0.19900
C1971       C  0.66930412  0.76276306  0.32165992    -0.25200
C1972       C  0.66070914  0.76116707  0.33979198     0.27500
H1973       H  0.62602290  0.68492360  0.34692491     0.13200
N1974       N  0.63835185  0.68101572  0.31202483    -0.82500
H1975       H  0.68154185  0.78467253  0.31472619     0.18100
N1976       N  0.66723162  0.78810055  0.34881886    -0.81100
H1977       H  0.62733439  0.66219264  0.32081706     0.33700
H1978       H  0.62242637  0.67625931  0.30187569     0.38200
H1979       H  0.67850300  0.80699755  0.34008524     0.33700
H1980       H  0.64624643  0.78426666  0.35206235     0.30400
H1981       H  0.56231404  0.68496352  0.36995102     0.33700
H1982       H  0.58319878  0.70987056  0.35327604     0.30400
H1983       H  0.68166091  0.79330339  0.41374549     0.38300
H1984       H  0.70355977  0.78381603  0.40442676     0.33700
C1985       C  0.67481731  0.73610521  0.20193126    -0.20000
C1986       C  0.65100421  0.70774094  0.19440364     0.36200
C1987       C  0.64452055  0.70601705  0.17568166    -0.26000
C1988       C  0.66086381  0.73211934  0.16457210     0.02600
C1989       C  0.68411669  0.76044512  0.17210058     0.27500
C1990       C  0.69116980  0.76202759  0.19057454    -0.25100
N1991       N  0.63369017  0.68087099  0.20561555    -0.82500
H1992       H  0.62616217  0.68445645  0.16978572     0.13300
C1993       C  0.65137925  0.73045661  0.14550324     0.02600
N1994       N  0.69939103  0.78777792  0.16115818    -0.81100
H1995       H  0.70908301  0.78401970  0.19623850     0.18100
C1996       C  0.62718155  0.73283354  0.14193925    -0.25900
C1997       C  0.61798632  0.73276126  0.12412768     0.36100
C1998       C  0.63360618  0.73084617  0.10924712    -0.19900
C1999       C  0.65807158  0.72846930  0.11302750    -0.25200
C2000       C  0.66685653  0.72792743  0.13101720     0.27500
H2001       H  0.61522958  0.73468126  0.15311915     0.13200
N2002       N  0.59223429  0.73408953  0.12121523    -0.82500
H2003       H  0.67010187  0.72619196  0.10222604     0.18100
N2004       N  0.69063797  0.72368206  0.13464034    -0.81100
H2005       H  0.57324791  0.71539714  0.12781496     0.33700
H2006       H  0.59708222  0.75410297  0.12721270     0.38200
H2007       H  0.69918116  0.72134373  0.12252042     0.33700
H2008       H  0.70890724  0.74342627  0.14090294     0.30400
H2009       H  0.71508495  0.80696055  0.16895725     0.33700
H2010       H  0.71216950  0.78593365  0.15127841     0.30400
H2011       H  0.62032395  0.68395515  0.21433493     0.38300
H2012       H  0.61826341  0.66170237  0.19772400     0.33700
C2013       C  0.71502155  0.84297057  0.25081472    -0.20000
C2014       C  0.74351772  0.87164574  0.25330710     0.36200
C2015       C  0.74542976  0.89861060  0.25044468    -0.26000
C2016       C  0.71976069  0.89759356  0.24499006     0.02600
C2017       C  0.69145143  0.86922471  0.24225830     0.27500
C2018       C  0.68937624  0.84217820  0.24515050    -0.25100
N2019       N  0.77030846  0.87348595  0.25899048    -0.82500
H2020       H  0.76703859  0.92065421  0.25257451     0.13300
C2021       C  0.72244939  0.92650529  0.24349580     0.02600
N2022       N  0.66488733  0.86805149  0.23687597    -0.81100
H2023       H  0.66748852  0.82037886  0.24312058     0.18100
C2024       C  0.72035448  0.93688485  0.22645655    -0.25900
C2025       C  0.72120272  0.96354175  0.22482090     0.36100
C2026       C  0.72437231  0.98006599  0.24067056    -0.19900
C2027       C  0.72775934  0.97008025  0.25759606    -0.25200
C2028       C  0.72656851  0.94335500  0.25917830     0.27500
H2029       H  0.71738045  0.92374154  0.21447564     0.13200
N2030       N  0.71803232  0.97322620  0.20723935    -0.82500
H2031       H  0.73035411  0.98262456  0.26978526     0.18100
N2032       N  0.72878800  0.93278346  0.27669878    -0.81100
H2033       H  0.71743916  0.95934980  0.19705977     0.33700
H2034       H  0.69670530  0.96982220  0.20685434     0.38200
H2035       H  0.73196803  0.94791093  0.28687971     0.33700
H2036       H  0.70777242  0.91196352  0.27932369     0.30400
H2037       H  0.64586063  0.84536202  0.23535771     0.33700
H2038       H  0.65969354  0.87731357  0.24743138     0.30400
H2039       H  0.77694205  0.86603740  0.24814472     0.38300
H2040       H  0.78865038  0.89621998  0.26136398     0.33700
C2041       C  0.61927473  0.99317114  0.09572236    -0.20000
C2042       C  0.64559245  0.99827366  0.10430708     0.36200
C2043       C  0.65248649  0.00860214  0.12230090    -0.26000
C2044       C  0.63409627  0.01473675  0.13189339     0.02600
C2045       C  0.60955610  0.01258111  0.12293753     0.27500
C2046       C  0.60255802  0.00208390  0.10483657    -0.25100
N2047       N  0.66548040  0.99304449  0.09481173    -0.82500
H2048       H  0.67193924  0.01112897  0.12899640     0.13300
C2049       C  0.64006682  0.02147967  0.15156942     0.02600
N2050       N  0.59147968  0.02035246  0.13237195    -0.81100
H2051       H  0.58309184  0.99946427  0.09823081     0.18100
C2052       C  0.65911349  0.05187390  0.15748533    -0.25900
C2053       C  0.66894775  0.05883002  0.17570720     0.36100
C2054       C  0.65948917  0.03476292  0.18823616    -0.19900
C2055       C  0.63897721  0.00432952  0.18238443    -0.25200
C2056       C  0.62938102  0.99747559  0.16416726     0.27500
H2057       H  0.66718883  0.07018822  0.14770208     0.13200
N2058       N  0.68910773  0.09020326  0.18137141    -0.82500
H2059       H  0.63160043  0.98572182  0.19182814     0.18100
N2060       N  0.60992977  0.96620932  0.15817554    -0.81100
H2061       H  0.69428657  0.10500719  0.17045830     0.33700
H2062       H  0.67724639  0.09416384  0.19081712     0.38200
H2063       H  0.60453991  0.95120960  0.16900705     0.33700
H2064       H  0.58926826  0.96214559  0.15373638     0.30400
H2065       H  0.57440676  0.01771034  0.12383448     0.33700
H2066       H  0.58021671  0.00468963  0.14299459     0.30400
H2067       H  0.68742844  0.01357308  0.09459080     0.38300
H2068       H  0.66668771  0.97702261  0.10217657     0.33700
C2069       C  0.60706983  0.00167772  0.38452642    -0.20000
C2070       C  0.63781218  0.01466564  0.37932589     0.36200
C2071       C  0.64663439  0.02195795  0.36107529    -0.26000
C2072       C  0.62537560  0.01620717  0.34760783     0.02600
C2073       C  0.59493224  0.00387593  0.35249738     0.27500
C2074       C  0.58606549  0.99680431  0.37080835    -0.25100
N2075       N  0.66003557  0.01952457  0.39250171    -0.82500
H2076       H  0.67007947  0.03129631  0.35730973     0.13300
C2077       C  0.63499402  0.02168516  0.32831306     0.02600
N2078       N  0.57298966  0.99805693  0.33873635    -0.81100
H2079       H  0.56235131  0.98656101  0.37384459     0.18100
C2080       C  0.62491450  0.99657944  0.31698704    -0.25900
C2081       C  0.63505048  0.00067400  0.29891534     0.36100
C2082       C  0.65593980  0.03070392  0.29203787    -0.19900
C2083       C  0.66512853  0.05579235  0.30334996    -0.25200
C2084       C  0.65482991  0.05155529  0.32138844     0.27500
H2085       H  0.60947336  0.97365453  0.32241747     0.13200
N2086       N  0.62457676  0.97440986  0.28772416    -0.82500
H2087       H  0.68103836  0.07887051  0.29827343     0.18100
N2088       N  0.66470733  0.07741921  0.33281135    -0.81100
H2089       H  0.61012751  0.95415349  0.29504388     0.33700
H2090       H  0.61124762  0.97444299  0.27729675     0.38200
H2091       H  0.67944794  0.09787676  0.32572781     0.33700
H2092       H  0.64531592  0.07673426  0.33610233     0.30400
H2093       H  0.55139660  0.98862055  0.34444710     0.33700
H2094       H  0.57999407  0.01915336  0.33315227     0.30400
H2095       H  0.66841553  0.00691365  0.38857952     0.38300
H2096       H  0.67827165  0.04272421  0.39230513     0.33700
C2097       C  0.79121628  0.13897962  0.24870712    -0.20000
C2098       C  0.82048283  0.14458203  0.24733337     0.36200
C2099       C  0.84689645  0.17429726  0.25030929    -0.26000
C2100       C  0.84488450  0.19834805  0.25524027     0.02600
C2101       C  0.81580180  0.19274672  0.25696739     0.27500
C2102       C  0.78935623  0.16328144  0.25347931    -0.25100
N2103       N  0.82349407  0.12033298  0.24286443    -0.82500
H2104       H  0.86931167  0.17876557  0.24882550     0.13300
C2105       C  0.87358337  0.22933386  0.25817352     0.02600
N2106       N  0.81323848  0.21691893  0.26243217    -0.81100
H2107       H  0.76711026  0.15924988  0.25473946     0.18100
C2108       C  0.87890110  0.25411520  0.24791603    -0.25900
C2109       C  0.90680373  0.28327573  0.24923464     0.36100
C2110       C  0.93017038  0.28751722  0.26082952    -0.19900
C2111       C  0.92439250  0.26285703  0.27146097    -0.25200
C2112       C  0.89627979  0.23394417  0.27040417     0.27500
H2113       H  0.86147234  0.25047048  0.23847123     0.13200
N2114       N  0.91188020  0.30802586  0.23819332    -0.82500
H2115       H  0.94205522  0.26605840  0.28052816     0.18100
N2116       N  0.89078056  0.20911855  0.28155058    -0.81100
H2117       H  0.89315265  0.30044645  0.22959754     0.33700
H2118       H  0.91297219  0.32399457  0.24689294     0.38200
H2119       H  0.90986932  0.21621412  0.28970237     0.33700
H2120       H  0.87276487  0.20299471  0.29033663     0.30400
H2121       H  0.79023181  0.20907429  0.26298861     0.33700
H2122       H  0.82187825  0.22323550  0.27564832     0.30400
H2123       H  0.81537786  0.10533009  0.25393966     0.38300
H2124       H  0.84658084  0.12879478  0.24142919     0.33700
C2125       C  0.09724565  0.46807523  0.40120653    -0.20000
C2126       C  0.08486593  0.48209814  0.39223969     0.36200
C2127       C  0.07324993  0.47318261  0.37445817    -0.26000
C2128       C  0.07401555  0.45070019  0.36536063     0.02600
C2129       C  0.08485971  0.43556664  0.37458083     0.27500
C2130       C  0.09621659  0.44430742  0.39234634    -0.25100
N2131       N  0.08533142  0.50638747  0.40064905    -0.82500
H2132       H  0.06484017  0.48480906  0.36745024     0.13300
C2133       C  0.06563872  0.44436338  0.34581270     0.02600
N2134       N  0.08478691  0.41169163  0.36567115    -0.81100
H2135       H  0.10478263  0.43273379  0.39922597     0.18100
C2136       C  0.08825499  0.45008449  0.33348110    -0.25900
C2137       C  0.08108462  0.44074084  0.31529594     0.36100
C2138       C  0.05027462  0.42486607  0.30924706    -0.19900
C2139       C  0.02798462  0.42104539  0.32137309    -0.25200
C2140       C  0.03540787  0.43076348  0.33959364     0.27500
H2141       H  0.11159724  0.46113768  0.33827871     0.13200
N2142       N  0.10486251  0.44615944  0.30326703    -0.82500
H2143       H  0.00443284  0.40932204  0.31684779     0.18100
N2144       N  0.01222508  0.42595109  0.35191363    -0.81100
H2145       H  0.12578519  0.45661493  0.31014156     0.33700
H2146       H  0.10790369  0.46183595  0.29343212     0.38200
H2147       H  0.99121064  0.41581482  0.34519287     0.33700
H2148       H  0.00916450  0.41036156  0.36181832     0.30400
H2149       H  0.09383779  0.40307466  0.37419546     0.33700
H2150       H  0.06193451  0.39365788  0.36319106     0.30400
H2151       H  0.09755835  0.52567789  0.39226129     0.38300
H2152       H  0.06275227  0.49982333  0.40141921     0.33700
C2153       C  0.07942511  0.46284687  0.11424748    -0.20000
C2154       C  0.05687791  0.46577132  0.12199088     0.36200
C2155       C  0.04662467  0.45548259  0.13986642    -0.26000
C2156       C  0.05741602  0.44134574  0.14998141     0.02600
C2157       C  0.07805286  0.43643606  0.14205547     0.27500
C2158       C  0.08836932  0.44665515  0.12428825    -0.25100
N2159       N  0.04483826  0.47968922  0.11187162    -0.82500
H2160       H  0.03004849  0.45838315  0.14594727     0.13300
C2161       C  0.04659889  0.43089956  0.16879404     0.02600
N2162       N  0.08852587  0.42105795  0.15217694    -0.81100
H2163       H  0.10317824  0.44130260  0.11853668     0.18100
C2164       C  0.02439751  0.39973376  0.17197599    -0.25900
C2165       C  0.01631392  0.38806090  0.18973812     0.36100
C2166       C  0.03116993  0.40806017  0.20469928    -0.19900
C2167       C  0.05225996  0.43960003  0.20141038    -0.25200
C2168       C  0.06031062  0.45117887  0.18357554     0.27500
H2169       H  0.01391859  0.38434853  0.16050245     0.13200
N2170       N  0.99348958  0.35588620  0.19257352    -0.82500
H2171       H  0.06364629  0.45508076  0.21275271     0.18100
N2172       N  0.08303650  0.48325719  0.18039145    -0.81100
H2173       H  0.98532042  0.34440318  0.18017516     0.33700
H2174       H  0.97483491  0.35350664  0.19901474     0.38200
H2175       H  0.09083638  0.49512269  0.19269074     0.33700
H2176       H  0.10192285  0.48562107  0.17430198     0.30400
H2177       H  0.10346323  0.41887939  0.14439585     0.33700
H2178       H  0.10128527  0.43492727  0.16322697     0.30400
H2179       H  0.03178696  0.46509840  0.10115098     0.38300
H2180       H  0.02977630  0.48143302  0.11983007     0.33700
C2181       C  0.22097054  0.34560667  0.24970602    -0.20000
C2182       C  0.19241075  0.31993649  0.24345775     0.36200
C2183       C  0.16591478  0.31934708  0.24555067    -0.26000
C2184       C  0.16745756  0.34382223  0.25367051     0.02600
C2185       C  0.19579166  0.36928561  0.26000670     0.27500
C2186       C  0.22220976  0.36989857  0.25798988    -0.25100
N2187       N  0.19040422  0.29487237  0.23474514    -0.82500
H2188       H  0.14401017  0.29995419  0.24061012     0.13300
C2189       C  0.13965298  0.34352833  0.25464325     0.02600
N2190       N  0.19763139  0.39459272  0.26825346    -0.81100
H2191       H  0.24395349  0.38959958  0.26287203     0.18100
C2192       C  0.12735373  0.34240876  0.27163700    -0.25900
C2193       C  0.10315547  0.34565570  0.27319483     0.36100
C2194       C  0.09077537  0.34960883  0.25732201    -0.19900
C2195       C  0.10261091  0.34975200  0.24029984    -0.25200
C2196       C  0.12705381  0.34696534  0.23880686     0.27500
H2197       H  0.13741240  0.34002471  0.28374918     0.13200
N2198       N  0.09204976  0.34615173  0.29082783    -0.82500
H2199       H  0.09319443  0.35274676  0.22809746     0.18100
N2200       N  0.13974212  0.34849965  0.22132942    -0.81100
H2201       H  0.10333115  0.34248527  0.30099273     0.33700
H2202       H  0.09778125  0.36819928  0.29288269     0.38200
H2203       H  0.12776776  0.35095238  0.21103276     0.33700
H2204       H  0.16219733  0.36830772  0.22105105     0.30400
H2205       H  0.22011668  0.41144318  0.27232938     0.33700
H2206       H  0.19195867  0.40458103  0.25833394     0.30400
H2207       H  0.20235305  0.30305289  0.22249006     0.38300
H2208       H  0.16765845  0.27760415  0.23137509     0.33700
C2209       C  0.33197001  0.44346562  0.09850776    -0.20000
C2210       C  0.33818686  0.42143093  0.10071787     0.36200
C2211       C  0.34009276  0.41218401  0.11830042    -0.26000
C2212       C  0.33585487  0.42463845  0.13375291     0.02600
C2213       C  0.33001529  0.44699571  0.13156666     0.27500
C2214       C  0.32840679  0.45634418  0.11400946    -0.25100
N2215       N  0.34137945  0.40755210  0.08517778    -0.82500
H2216       H  0.34423308  0.39473371  0.11990601     0.13300
C2217       C  0.33485144  0.41237094  0.15209816     0.02600
N2218       N  0.32499277  0.45955714  0.14718607    -0.81100
H2219       H  0.32401357  0.47361260  0.11239877     0.18100
C2220       C  0.35682303  0.43146332  0.16525680    -0.25900
C2221       C  0.35441248  0.42142040  0.18333376     0.36100
C2222       C  0.32949068  0.39148302  0.18828659    -0.19900
C2223       C  0.30822677  0.37220581  0.17480915    -0.25200
C2224       C  0.31049090  0.38237731  0.15689174     0.27500
H2225       H  0.37544489  0.45458000  0.16148892     0.13200
N2226       N  0.37677073  0.44176861  0.19662444    -0.82500
H2227       H  0.28913454  0.34918217  0.17834164     0.18100
N2228       N  0.28759464  0.36263928  0.14364145    -0.81100
H2229       H  0.39409629  0.46241140  0.19057588     0.33700
H2230       H  0.36578485  0.44719649  0.20583199     0.38200
H2231       H  0.27125272  0.34120510  0.14929037     0.33700
H2232       H  0.27597499  0.37229274  0.13999000     0.30400
H2233       H  0.32109034  0.47582184  0.14324766     0.33700
H2234       H  0.30489222  0.44178407  0.15348534     0.30400
H2235       H  0.36292440  0.41147264  0.08585020     0.38300
H2236       H  0.32471912  0.38392789  0.08596422     0.33700
C2237       C  0.36078121  0.44896690  0.38925818    -0.20000
C2238       C  0.33570697  0.41917988  0.38423224     0.36200
C2239       C  0.33352285  0.40838394  0.36648207    -0.26000
C2240       C  0.35627477  0.42643880  0.35348526     0.02600
C2241       C  0.38252133  0.45503323  0.35873312     0.27500
C2242       C  0.38468591  0.46575993  0.37644208    -0.25100
N2243       N  0.31199608  0.39994410  0.39704521    -0.82500
H2244       H  0.31344423  0.38606760  0.36270042     0.13300
C2245       C  0.35207421  0.41580453  0.33429766     0.02600
N2246       N  0.40695342  0.47321939  0.34596557    -0.81100
H2247       H  0.40560733  0.48732101  0.37978309     0.18100
C2248       C  0.35354751  0.43448231  0.32024817    -0.25900
C2249       C  0.34848519  0.42494129  0.30200544     0.36100
C2250       C  0.34186488  0.39601153  0.29765656    -0.19900
C2251       C  0.34098431  0.37761386  0.31170460    -0.25200
C2252       C  0.34623881  0.38727821  0.32991694     0.27500
H2253       H  0.35779299  0.45630374  0.32361719     0.13200
N2254       N  0.34888927  0.44405080  0.28805864    -0.82500
H2255       H  0.33594779  0.35541808  0.30846955     0.18100
N2256       N  0.34566625  0.36824396  0.34397735    -0.81100
H2257       H  0.35473211  0.46478655  0.29350419     0.33700
H2258       H  0.32653449  0.43291609  0.28303605     0.38200
H2259       H  0.34090981  0.34792405  0.33852439     0.33700
H2260       H  0.36769030  0.37992564  0.34958150     0.30400
H2261       H  0.42456187  0.49397210  0.35175269     0.33700
H2262       H  0.41635013  0.46123624  0.34283579     0.30400
H2263       H  0.31071534  0.37980478  0.39851936     0.38300
H2264       H  0.29115598  0.39416990  0.39164199     0.33700
C2265       C  0.31610722  0.27927009  0.24391440    -0.20000
C2266       C  0.33767067  0.27869520  0.23321857     0.36200
C2267       C  0.33935453  0.25346216  0.23451302    -0.26000
C2268       C  0.31982837  0.22887927  0.24612706     0.02600
C2269       C  0.29836440  0.22938463  0.25679256     0.27500
C2270       C  0.29669358  0.25455160  0.25556440    -0.25100
N2271       N  0.35725967  0.30328814  0.22083005    -0.82500
H2272       H  0.35560896  0.25268558  0.22625553     0.13300
C2273       C  0.32107920  0.20201649  0.24649113     0.02600
N2274       N  0.27848354  0.20438098  0.26888685    -0.81100
H2275       H  0.28025969  0.25495651  0.26386600     0.18100
C2276       C  0.33893300  0.20017898  0.25967824    -0.25900
C2277       C  0.33956201  0.17430289  0.26086113     0.36100
C2278       C  0.32149539  0.14964027  0.24873414    -0.19900
C2279       C  0.30377328  0.15173646  0.23549104    -0.25200
C2280       C  0.30355227  0.17778940  0.23417526     0.27500
H2281       H  0.35218252  0.21890222  0.26915625     0.13200
N2282       N  0.35730317  0.17245137  0.27484125    -0.82500
H2283       H  0.28994880  0.13289682  0.22616975     0.18100
N2284       N  0.28558226  0.17978708  0.22042308    -0.81100
H2285       H  0.36737338  0.19149190  0.28338432     0.33700
H2286       H  0.37541438  0.17361876  0.26852418     0.38200
H2287       H  0.27433017  0.16022205  0.21227571     0.33700
H2288       H  0.26849017  0.18018495  0.22693358     0.30400
H2289       H  0.26432342  0.20850141  0.27598188     0.33700
H2290       H  0.26401165  0.18491144  0.26098556     0.30400
H2291       H  0.34326862  0.30324583  0.21083565     0.38300
H2292       H  0.37191864  0.29940171  0.21414850     0.33700
C2293       C  0.34610775  0.05914126  0.30807858    -0.20000
C2294       C  0.35721902  0.04113896  0.31153412     0.36200
C2295       C  0.35943519  0.03377445  0.32955241    -0.26000
C2296       C  0.35149464  0.04452789  0.34413994     0.02600
C2297       C  0.34254375  0.06421722  0.34087730     0.27500
C2298       C  0.33997081  0.07136701  0.32288111    -0.25100
N2299       N  0.36545017  0.02971063  0.29682037    -0.82500
H2300       H  0.36664654  0.01890959  0.33225870     0.13300
C2301       C  0.35016382  0.03273255  0.36256958     0.02600
N2302       N  0.33563612  0.07643274  0.35582689    -0.81100
H2303       H  0.33191882  0.08557613  0.32043917     0.18100
C2304       C  0.37595463  0.04827051  0.37386783    -0.25900
C2305       C  0.37573377  0.03630739  0.39094285     0.36100
C2306       C  0.34931218  0.00795423  0.39694895    -0.19900
C2307       C  0.32311151  0.99319151  0.38557904    -0.25200
C2308       C  0.32337031  0.00522312  0.36853468     0.27500
H2309       H  0.39652100  0.06962502  0.36931439     0.13200
N2310       N  0.40262114  0.05300565  0.40212958    -0.82500
H2311       H  0.30202598  0.97224366  0.38956054     0.18100
N2312       N  0.29664925  0.98924698  0.35702470    -0.81100
H2313       H  0.42091554  0.05592553  0.39488893     0.33700
H2314       H  0.40755656  0.07465096  0.40456154     0.38200
H2315       H  0.27892448  0.96892988  0.36316372     0.33700
H2316       H  0.28872911  0.00299330  0.35555100     0.30400
H2317       H  0.32978109  0.09087947  0.35111327     0.33700
H2318       H  0.31625793  0.05819067  0.36240395     0.30400
H2319       H  0.38454100  0.04859454  0.29040867     0.38300
H2320       H  0.37242742  0.01628251  0.30172847     0.33700
C2321       C  0.34556865  0.04351167  0.20624360    -0.20000
C2322       C  0.34049961  0.01480660  0.20307963     0.36200
C2323       C  0.34643930  0.00831911  0.18576864    -0.26000
C2324       C  0.35654298  0.02945941  0.17148899     0.02600
C2325       C  0.36238021  0.05826652  0.17472266     0.27500
C2326       C  0.35708674  0.06508688  0.19206404    -0.25100
N2327       N  0.32930356  0.99228998  0.21729771    -0.82500
H2328       H  0.34210801  0.98622312  0.18318825     0.13300
C2329       C  0.35975796  0.02072269  0.15300465     0.02600
N2330       N  0.37326533  0.08031019  0.16026262    -0.81100
H2331       H  0.36100806  0.08707096  0.19431439     0.18100
C2332       C  0.34035710  0.01793892  0.13908896    -0.25900
C2333       C  0.34198430  0.00880127  0.12156091     0.36100
C2334       C  0.36342162  0.00207343  0.11758674    -0.19900
C2335       C  0.38342868  0.00580655  0.13168165    -0.25200
C2336       C  0.38174394  0.01498480  0.14924273     0.27500
H2337       H  0.32342572  0.02242574  0.14193379     0.13200
N2338       N  0.32125006  0.00575388  0.10786521    -0.82500
H2339       H  0.40040175  0.00141117  0.12951468     0.18100
N2340       N  0.40224774  0.01843388  0.16333826    -0.81100
H2341       H  0.29884581  0.98990142  0.11243343     0.33700
H2342       H  0.32459029  0.02691152  0.10635096     0.38200
H2343       H  0.41703578  0.01318066  0.15848859     0.33700
H2344       H  0.41600046  0.04152753  0.16703286     0.30400
H2345       H  0.37615970  0.10030724  0.16478566     0.33700
H2346       H  0.39497762  0.08639862  0.15654515     0.30400
H2347       H  0.30619956  0.98329721  0.21930910     0.38300
H2348       H  0.32969795  0.97386545  0.21316726     0.33700
C2349       C  0.07666886  0.83978975  0.24932890    -0.20000
C2350       C  0.10583263  0.84515359  0.24810848     0.36200
C2351       C  0.13229379  0.87494274  0.25050615    -0.26000
C2352       C  0.13033995  0.89954230  0.25357574     0.02600
C2353       C  0.10148591  0.89459725  0.25405984     0.27500
C2354       C  0.07490125  0.86474087  0.25196164    -0.25100
N2355       N  0.10862196  0.82052426  0.24440760    -0.82500
H2356       H  0.15468828  0.87916057  0.24974247     0.13300
C2357       C  0.15902098  0.93046614  0.25566730     0.02600
N2358       N  0.09935229  0.91984727  0.25690325    -0.81100
H2359       H  0.05270000  0.86092178  0.25274692     0.18100
C2360       C  0.16692764  0.95266723  0.24238831    -0.25900
C2361       C  0.19560923  0.98113237  0.24273406     0.36100
C2362       C  0.21684536  0.98722742  0.25659818    -0.19900
C2363       C  0.20810673  0.96546346  0.27041621    -0.25200
C2364       C  0.17936534  0.93713471  0.27009285     0.27500
H2365       H  0.15098490  0.94737021  0.23142205     0.13200
N2366       N  0.20334525  0.00354911  0.22891455    -0.82500
H2367       H  0.22414946  0.97006141  0.28116983     0.18100
N2368       N  0.17093715  0.91480634  0.28410696    -0.81100
H2369       H  0.18533268  0.99518443  0.21961971     0.33700
H2370       H  0.20596912  0.02235759  0.23525945     0.38200
H2371       H  0.18859807  0.92316895  0.29365522     0.33700
H2372       H  0.15213495  0.91141829  0.29098338     0.30400
H2373       H  0.07643819  0.91236917  0.25677345     0.33700
H2374       H  0.10785702  0.92847517  0.26989783     0.30400
H2375       H  0.10056496  0.81295014  0.23120141     0.38300
H2376       H  0.13164136  0.82834175  0.24447799     0.33700
C2377       C  0.90616820  0.73934309  0.25111070    -0.20000
C2378       C  0.90306089  0.76009220  0.24117163     0.36200
C2379       C  0.87695748  0.75985883  0.24365462    -0.26000
C2380       C  0.85378718  0.73927548  0.25569717     0.02600
C2381       C  0.85620771  0.71782183  0.26516808     0.27500
C2382       C  0.88237321  0.71796868  0.26271296    -0.25100
N2383       N  0.92632331  0.78127890  0.22854454    -0.82500
H2384       H  0.87458706  0.77584234  0.23614145     0.13300
C2385       C  0.82722960  0.74076353  0.25814554     0.02600
N2386       N  0.83241406  0.69646435  0.27747704    -0.81100
H2387       H  0.88463854  0.70201752  0.27033554     0.18100
C2388       C  0.79789729  0.71562974  0.25319300    -0.25900
C2389       C  0.77243620  0.71693715  0.25419907     0.36100
C2390       C  0.77659486  0.74418835  0.26023952    -0.19900
C2391       C  0.80605446  0.76916699  0.26540774    -0.25200
C2392       C  0.83136603  0.76770258  0.26447605     0.27500
H2393       H  0.79501221  0.69511981  0.24817169     0.13200
N2394       N  0.74276875  0.69110375  0.24847439    -0.82500
H2395       H  0.80946184  0.79008630  0.27008234     0.18100
N2396       N  0.86135226  0.79354625  0.26975974    -0.81100
H2397       H  0.74426952  0.67393239  0.24318099     0.33700
H2398       H  0.72906944  0.68177365  0.26005457     0.38200
H2399       H  0.86056529  0.81171926  0.27391965     0.33700
H2400       H  0.86820268  0.78698769  0.28106066     0.30400
H2401       H  0.83767135  0.68220153  0.28334824     0.33700
H2402       H  0.83179662  0.70904350  0.28805494     0.30400
H2403       H  0.92671348  0.76846207  0.21803127     0.38300
H2404       H  0.92068151  0.79520132  0.22260931     0.33700
C2405       C  0.00349284  0.71425895  0.19841748    -0.20000
C2406       C  0.02194392  0.70318033  0.19751904     0.36200
C2407       C  0.03280773  0.70131775  0.18056657    -0.26000
C2408       C  0.02497461  0.70945477  0.16451469     0.02600
C2409       C  0.00486863  0.71838823  0.16522784     0.27500
C2410       C  0.99440001  0.72077712  0.18215258    -0.25100
N2411       N  0.03074104  0.69514589  0.21379254    -0.82500
H2412       H  0.04799431  0.69410495  0.17986151     0.13300
C2413       C  0.03957506  0.71069027  0.14714946     0.02600
N2414       N  0.99600782  0.72598025  0.14878699    -0.81100
H2415       H  0.97995697  0.72887873  0.18266501     0.18100
C2416       C  0.02179528  0.68995021  0.13330366    -0.25900
C2417       C  0.03457147  0.69194411  0.11627994     0.36100
C2418       C  0.06538385  0.71641190  0.11245018    -0.19900
C2419       C  0.08361150  0.73557879  0.12702291    -0.25200
C2420       C  0.07100592  0.73313990  0.14419184     0.27500
H2421       H  0.99786986  0.67187979  0.13579285     0.13200
N2422       N  0.01625345  0.66853219  0.10313417    -0.82500
H2423       H  0.10798744  0.75223313  0.12536734     0.18100
N2424       N  0.08999799  0.75341842  0.15865519    -0.81100
H2425       H  0.99659404  0.66783885  0.10060255     0.33700
H2426       H  0.00937176  0.64751390  0.10877738     0.38200
H2427       H  0.11273989  0.76838032  0.15438848     0.33700
H2428       H  0.08234697  0.76695702  0.16181448     0.30400
H2429       H  0.98092855  0.73191923  0.15161498     0.33700
H2430       H  0.01569825  0.74543338  0.14322201     0.30400
H2431       H  0.01090101  0.67566015  0.21921573     0.38300
H2432       H  0.04546636  0.68883902  0.21077618     0.33700
C2433       C  0.00508274  0.72221516  0.30368196    -0.20000
C2434       C  0.00418778  0.73644048  0.31956749     0.36200
C2435       C  0.01536318  0.73299110  0.33601689    -0.26000
C2436       C  0.02690420  0.71528337  0.33698206     0.02600
C2437       C  0.02625025  0.69967898  0.32145870     0.27500
C2438       C  0.01512423  0.70311517  0.30496256    -0.25100
N2439       N  0.99232822  0.75463455  0.31891534    -0.82500
H2440       H  0.01575417  0.74471681  0.34808144     0.13300
C2441       C  0.04209770  0.71559523  0.35392930     0.02600
N2442       N  0.03768468  0.68113172  0.32241980    -0.81100
H2443       H  0.01573930  0.69203945  0.29287600     0.18100
C2444       C  0.02630895  0.69141267  0.36632101    -0.25900
C2445       C  0.04022781  0.69171983  0.38265139     0.36100
C2446       C  0.07046258  0.71700016  0.38702723    -0.19900
C2447       C  0.08634826  0.74072695  0.37404088    -0.25200
C2448       C  0.07251278  0.74018899  0.35763507     0.27500
H2449       H  0.00303784  0.67218162  0.36330639     0.13200
N2450       N  0.02354800  0.66609938  0.39474911    -0.82500
H2451       H  0.10982524  0.75968383  0.37608953     0.18100
N2452       N  0.08926870  0.76458348  0.34462381    -0.81100
H2453       H  0.00322270  0.66342357  0.39832598     0.33700
H2454       H  0.01776334  0.64649056  0.38773510     0.38200
H2455       H  0.11135071  0.78123618  0.34939184     0.33700
H2456       H  0.09194060  0.75534567  0.33293746     0.30400
H2457       H  0.03543653  0.67105170  0.30984002     0.33700
H2458       H  0.06118049  0.69560384  0.32520837     0.30400
H2459       H  0.96903476  0.74002131  0.31560460     0.38300
H2460       H  0.99358439  0.76367600  0.33170859     0.33700
loop_ 
_geom_bond_atom_site_label_1 
_geom_bond_atom_site_label_2 
_geom_bond_distance 
_geom_bond_site_symmetry_2 
_ccdc_geom_bond_type 
O1            C4   1.265   1_455  A
O1           Cd6   2.482   1_455  S
C2           O11   1.264   1_655  A
C2            O7   1.268       .  A
C2         C2433   1.485   1_655  S
O3            C9   1.264       .  A
O3           Cd6   2.447   1_455  S
C4           O12   1.264       .  A
C4         C2405   1.489   1_655  S
C5           O10   1.263       .  A
C5            O8   1.268       .  A
C5         C2377   1.481       .  S
Cd6          O13   2.460   1_655  S
Cd6          O12   2.468       .  S
Cd6          O11   2.447   1_655  S
Cd6           O7   2.489       .  S
Cd6          O10   2.423       .  S
Cd6           O8   2.490       .  S
C9           O13   1.264       .  A
C9         C2349   1.482       .  S
O14          C17   1.264       .  A
O14         Cd19   2.461       .  S
C15          O24   1.266       .  A
C15          O20   1.261       .  A
C15        C2321   1.488       .  S
O16          C22   1.264       .  A
O16         Cd19   2.452       .  S
C17          O25   1.266       .  A
C17        C2293   1.489       .  S
C18          O23   1.266       .  A
C18          O21   1.266       .  A
C18        C2278   1.481       .  S
Cd19         O26   2.457       .  S
Cd19         O25   2.476       .  S
Cd19         O24   2.485       .  S
Cd19         O20   2.464       .  S
Cd19         O23   2.460       .  S
Cd19         O21   2.470       .  S
C22          O26   1.264       .  A
C22        C2362   1.480   1_545  S
O27          C30   1.271       .  A
O27         Cd32   2.514       .  S
C28          O37   1.263       .  A
C28          O33   1.270       .  A
C28        C2250   1.488       .  S
O29          C35   1.267       .  A
O29         Cd32   2.478       .  S
C30          O38   1.264       .  A
C30        C2222   1.493       .  S
C31          O36   1.267       .  A
C31          O34   1.268       .  A
C31        C2265   1.482       .  S
Cd32         O39   2.437       .  S
Cd32         O38   2.431       .  S
Cd32         O37   2.444       .  S
Cd32         O33   2.503       .  S
Cd32         O36   2.448       .  S
Cd32         O34   2.472       .  S
C35          O39   1.265       .  A
C35        C2181   1.483       .  S
O40          C43   1.266       .  A
O40         Cd45   2.450   1_655  S
C41          O50   1.263       .  A
C41          O46   1.265       .  A
C41        C2194   1.482       .  S
O42          C48   1.270       .  A
O42         Cd45   2.511       .  S
C43          O51   1.266       .  A
C43        C2110   1.483       .  S
C44          O49   1.263       .  A
C44          O47   1.266       .  A
C44        C2138   1.493       .  S
Cd45         O52   2.434       .  S
Cd45         O51   2.467   1_455  S
Cd45         O50   2.448       .  S
Cd45         O46   2.487       .  S
Cd45         O49   2.456       .  S
Cd45         O47   2.507       .  S
C48          O52   1.262       .  A
C48        C2166   1.489       .  S
O53          C56   1.266       .  A
O53         Cd58   2.468       .  S
C54          O63   1.265       .  A
C54          O59   1.265       .  A
C54        C2026   1.482   1_545  S
O55          C61   1.263       .  A
O55         Cd58   2.476       .  S
C56          O64   1.266       .  A
C56        C2097   1.488       .  S
C57          O62   1.264       .  A
C57          O60   1.263       .  A
C57        C2054   1.490       .  S
Cd58         O65   2.487       .  S
Cd58         O64   2.453       .  S
Cd58         O63   2.472       .  S
Cd58         O59   2.433       .  S
Cd58         O62   2.492       .  S
Cd58         O60   2.481       .  S
C61          O65   1.265       .  A
C61        C2082   1.492       .  S
O66          C69   1.272       .  A
O66         Cd71   2.520       .  S
C67          O76   1.263       .  A
C67          O72   1.273       .  A
C67        C1985   1.485       .  S
O68          C74   1.269       .  A
O68         Cd71   2.433       .  S
C69          O77   1.263       .  A
C69        C1970   1.484       .  S
C70          O75   1.267       .  A
C70          O73   1.266       .  A
C70        C2390   1.482       .  S
Cd71         O78   2.427       .  S
Cd71         O77   2.404       .  S
Cd71         O76   2.390       .  S
Cd71         O72   2.509       .  S
Cd71         O75   2.441       .  S
Cd71         O73   2.446       .  S
C74          O78   1.268       .  A
C74        C2013   1.482       .  S
C79          C80   1.543       .  S
C79          C85   1.536       .  S
C79          C83   1.547       .  S
C79        C2237   1.548       .  S
C80          H87   1.079       .  S
C80          C81   1.357       .  D
C81          C82   1.531       .  S
C81        C1929   1.478       .  S
C82          C86   1.544       .  S
C82          C84   1.546       .  S
C82          H88   1.108       .  S
C83          H89   1.086       .  S
C83          C84   1.377       .  D
C84        C1914   1.504       .  S
C85          H90   1.086       .  S
C85          C86   1.369       .  D
C86        C1873   1.497       .  S
C91          C92   1.533       .  S
C91          C97   1.538       .  S
C91          C95   1.552       .  S
C91        C1817   1.544       .  S
C92          H99   1.086       .  S
C92          C93   1.360       .  D
C93          C94   1.536       .  S
C93        C1942   1.480       .  S
C94          C98   1.536       .  S
C94          C96   1.547       .  S
C94         H100   1.110       .  S
C95         H101   1.081       .  S
C95          C96   1.373       .  D
C96        C1845   1.496       .  S
C97         H102   1.085       .  S
C97          C98   1.363       .  D
C98        C1957   1.482       .  S
C103        C104   1.545       .  S
C103        C109   1.552       .  S
C103        C107   1.543       .  S
C103       C1761   1.549       .  S
C104        H111   1.086       .  S
C104        C105   1.366       .  D
C105        C106   1.531       .  S
C105       C1789   1.479       .  S
C106        C110   1.533       .  S
C106        C108   1.535       .  S
C106        H112   1.111       .  S
C107        H113   1.086       .  S
C107        C108   1.368       .  D
C108       C1858   1.483       .  S
C109        H114   1.081       .  S
C109        C110   1.366       .  D
C110       C1733   1.490       .  S
C115        C116   1.543       .  S
C115        C121   1.539       .  S
C115        C119   1.541       .  S
C115       C1677   1.543       .  S
C116        H123   1.081       .  S
C116        C117   1.360       .  D
C117        C118   1.537       .  S
C117       C1802   1.479       .  S
C118        C122   1.540       .  S
C118        C120   1.546       .  S
C118        H124   1.110       .  S
C119        H125   1.085       .  S
C119        C120   1.374       .  D
C120       C1901   1.499       .  S
C121        H126   1.086       .  S
C121        C122   1.364       .  D
C122       C1718   1.488       .  S
C127        C128   1.533       .  S
C127        C133   1.547       .  S
C127        C131   1.545       .  S
C127       C1886   1.545       .  S
C128        H135   1.086       .  S
C128        C129   1.365       .  D
C129        C130   1.538       .  S
C129       C2125   1.497       .  S
C130        C134   1.545       .  S
C130        C132   1.537       .  S
C130        H136   1.107       .  S
C131        H137   1.085       .  S
C131        C132   1.365       .  D
C132       C1649   1.477       .  S
C133        H138   1.083       .  S
C133        C134   1.374       .  D
C134       C1621   1.502       .  S
C139        C140   1.545       .  S
C139        C145   1.535       .  S
C139        C143   1.534       .  S
C139       C1537   1.537       .  S
C140        H147   1.081       .  S
C140        C141   1.365       .  D
C141        C142   1.537       .  S
C141       C1634   1.481       .  S
C142        C146   1.545       .  S
C142        C144   1.540       .  S
C142        H148   1.110       .  S
C143        H149   1.087       .  S
C143        C144   1.364       .  D
C144       C1606   1.482       .  S
C145        H150   1.086       .  S
C145        C146   1.369       .  D
C146       C1565   1.493       .  S
C151        C152   1.537       .  S
C151        C157   1.542       .  S
C151        C155   1.544       .  S
C151       C1494   1.543       .  S
C152        H159   1.086       .  S
C152        C153   1.363       .  D
C153        C154   1.539       .  S
C153       C1593   1.484       .  S
C154        C158   1.539       .  S
C154        C156   1.542       .  S
C154        H160   1.110       .  S
C155        H161   1.085   1_655  S
C155        C156   1.374       .  D
C156       C1509   1.493       .  S
C157        H162   1.082       .  S
C157        C158   1.361       .  D
C158       C1774   1.485       .  S
C163        C164   1.537       .  S
C163        C169   1.547       .  S
C163        C167   1.542       .  S
C163       C2446   1.541       .  S
C164        H171   1.086       .  S
C164        C165   1.365       .  D
C165        C166   1.540       .  S
C165       C1662   1.485       .  S
C166        C170   1.539       .  S
C166        C168   1.540       .  S
C166        H172   1.111       .  S
C167        H173   1.086       .  S
C167        C168   1.365       .  D
C168       C1522   1.482       .  S
C169        H174   1.080       .  S
C169        C170   1.365       .  D
C170       C1453   1.490       .  S
C175        C176   1.531       .  S
C175        C181   1.538       .  S
C175        C179   1.552       .  S
C175       C1705   1.539       .  S
C176        H183   1.086       .  S
C176        C177   1.364       .  D
C177        C178   1.542       .  S
C177       C1369   1.490       .  S
C178        C182   1.541       .  S
C178        C180   1.534       .  S
C178        H184   1.110       .  S
C179        H185   1.081       .  S
C179        C180   1.368       .  D
C180       C1425   1.482       .  S
C181        H186   1.086       .  S
C181        C182   1.368       .  D
C182       C1410   1.490       .  S
C187        C188   1.531   1_565  S
C187        C193   1.542       .  S
C187        C191   1.541       .  S
C187       C2306   1.542   1_565  S
C188        H195   1.087       .  S
C188        C189   1.363       .  D
C189        C190   1.548   1_545  S
C189       C1397   1.482       .  S
C190        C194   1.539       .  S
C190        C192   1.547       .  S
C190        H196   1.106       .  S
C191        H197   1.085       .  S
C191        C192   1.375       .  D
C192       C1354   1.508       .  S
C193        H198   1.080       .  S
C193        C194   1.362       .  D
C194       C1466   1.484       .  S
C199        C200   1.544       .  S
C199        C205   1.531       .  S
C199        C203   1.544   1_565  S
C199       C2069   1.540   1_565  S
C200        H207   1.081       .  S
C200        C201   1.365       .  D
C201        C202   1.536       .  S
C201       C1341   1.480       .  S
C202        C206   1.541       .  S
C202        C204   1.537   1_565  S
C202        H208   1.110       .  S
C203        H209   1.086       .  S
C203        C204   1.370       .  D
C204       C1326   1.483       .  S
C205        H210   1.087       .  S
C205        C206   1.363       .  D
C206       C1830   1.487       .  S
C211        C212   1.533       .  S
C211        C217   1.533       .  S
C211        C215   1.544       .  S
C211       C1298   1.536       .  S
C212        H219   1.087       .  S
C212        C213   1.363       .  D
C213        C214   1.539       .  S
C213       C1438   1.483       .  S
C214        C218   1.544       .  S
C214        C216   1.549       .  S
C214        H220   1.110       .  S
C215        H221   1.080       .  S
C215        C216   1.370       .  D
C216       C1313   1.498       .  S
C217        H222   1.087       .  S
C217        C218   1.362       .  D
C218       C1578   1.481       .  S
O223        C226   1.266       .  A
O223       Cd228   2.478       .  S
C224        O233   1.262       .  A
C224        O229   1.269       .  A
C224       C1285   1.488       .  S
O225        C231   1.262       .  A
O225       Cd228   2.429       .  S
C226        O234   1.265       .  A
C226       C1257   1.491       .  S
C227        O232   1.264   1_565  A
C227        O230   1.268       .  A
C227       C1242   1.488       .  S
Cd228       O235   2.462       .  S
Cd228       O234   2.469       .  S
Cd228       O233   2.419       .  S
Cd228       O229   2.512       .  S
Cd228       O232   2.433       .  S
Cd228       O230   2.496   1_545  S
C231        O235   1.266       .  A
C231       C1201   1.481       .  S
O236        C239   1.273       .  A
O236       Cd241   2.533       .  S
C237        O246   1.264       .  A
C237        O242   1.274       .  A
C237       C1186   1.495       .  S
O238        C244   1.268       .  A
O238       Cd241   2.474       .  S
C239        O247   1.263       .  A
C239       C1746   1.498       .  S
C240        O245   1.268       .  A
C240        O243   1.268       .  A
C240       C1229   1.488       .  S
Cd241       O248   2.435       .  S
Cd241       O247   2.432       .  S
Cd241       O246   2.416       .  S
Cd241       O242   2.537       .  S
Cd241       O245   2.465       .  S
Cd241       O243   2.462       .  S
C244        O248   1.265       .  A
C244       C1145   1.475       .  S
O249        C252   1.264       .  A
O249       Cd254   2.428       .  S
C250        O259   1.261       .  A
C250        O255   1.269       .  A
C250       C1550   1.488       .  S
O251        C257   1.263       .  A
O251       Cd254   2.440       .  S
C252        O260   1.269       .  A
C252       C1117   1.489       .  S
C253        O258   1.266       .  A
C253        O256   1.266       .  A
C253       C1214   1.480       .  S
Cd254       O261   2.490       .  S
Cd254       O260   2.499       .  S
Cd254       O259   2.420       .  S
Cd254       O255   2.506       .  S
Cd254       O258   2.448   1_455  S
Cd254       O256   2.448   1_455  S
C257        O261   1.267       .  A
C257       C1102   1.482       .  S
O262        C265   1.269       .  A
O262       Cd267   2.497       .  S
C263        O272   1.264       .  A
C263        O268   1.269       .  A
C263       C1690   1.483       .  S
O264        C270   1.267       .  A
O264       Cd267   2.474       .  S
C265        O273   1.265       .  A
C265       C1061   1.490       .  S
C266        O271   1.268       .  A
C266        O269   1.268       .  A
C266       C1089   1.487       .  S
Cd267       O274   2.435       .  S
Cd267       O273   2.434       .  S
Cd267       O272   2.426       .  S
Cd267       O268   2.494       .  S
Cd267       O271   2.460       .  S
Cd267       O269   2.457       .  S
C270        O274   1.263       .  A
C270       C1046   1.479       .  S
O275        C278   1.265       .  A
O275       Cd280   2.465   1_655  S
C276        O285   1.266       .  A
C276        O281   1.266       .  A
C276        C977   1.476       .  S
O277        C283   1.269       .  A
O277       Cd280   2.509       .  S
C278        O286   1.264       .  A
C278       C1158   1.485       .  S
C279        O284   1.270   1_455  A
C279        O282   1.262       .  A
C279       C1481   1.489       .  S
Cd280       O287   2.451       .  S
Cd280       O286   2.482   1_455  S
Cd280       O285   2.464       .  S
Cd280       O281   2.443       .  S
Cd280       O284   2.511   1_455  S
Cd280       O282   2.436       .  S
C283        O287   1.264       .  A
C283       C1005   1.494   1_455  S
O288        C291   1.266       .  A
O288       Cd293   2.426       .  S
C289        O298   1.266       .  A
C289        O294   1.265       .  A
C289       C1033   1.476       .  S
O290        C296   1.268       .  A
O290       Cd293   2.524       .  S
C291        O299   1.267       .  A
C291        C990   1.480   1_545  S
C292        O297   1.265       .  A
C292        O295   1.267       .  A
C292       C1382   1.489       .  S
Cd293       O300   2.429       .  S
Cd293       O299   2.458       .  S
Cd293       O298   2.444       .  S
Cd293       O294   2.454       .  S
Cd293       O297   2.464       .  S
Cd293       O295   2.489       .  S
C296        O300   1.261       .  A
C296        C949   1.492       .  S
C301        C302   1.537       .  S
C301        C307   1.544       .  S
C301        C305   1.542       .  S
C301       C1173   1.550       .  S
C302        H309   1.086       .  S
C302        C303   1.360       .  D
C303        C304   1.540       .  S
C303        C921   1.479       .  S
C304        C308   1.543       .  S
C304        C306   1.553       .  S
C304        H310   1.104       .  S
C305        H311   1.085       .  S
C305        C306   1.379       .  D
C306        C893   1.515       .  S
C307        H312   1.080       .  S
C307        C308   1.366       .  D
C308        C865   1.501       .  S
C313        C314   1.549       .  S
C313        C319   1.539       .  S
C313        C317   1.538       .  S
C313        C809   1.544       .  S
C314        H321   1.083       .  S
C314        C315   1.365       .  D
C315        C316   1.537       .  S
C315        C934   1.483       .  S
C316        C320   1.538       .  S
C316        C318   1.547       .  S
C316        H322   1.108       .  S
C317        H323   1.086       .  S
C317        C318   1.372       .  D
C318        C850   1.502       .  S
C319        H324   1.086       .  S
C319        C320   1.364       .  D
C320       C1074   1.488       .  S
C325        C326   1.533       .  S
C325        C331   1.537       .  S
C325        C329   1.548       .  S
C325        C766   1.538       .  S
C326        H333   1.087       .  S
C326        C327   1.360       .  D
C327        C328   1.535       .  S
C327        C781   1.473       .  S
C328        C332   1.539       .  S
C328        C330   1.551       .  S
C328        H334   1.108       .  S
C329        H335   1.078       .  S
C329        C330   1.377       .  D
C330        C837   1.506       .  S
C331        H336   1.086       .  S
C331        C332   1.362       .  D
C332       C2209   1.489       .  S
C337        C338   1.528       .  S
C337        C343   1.530       .  S
C337        C341   1.551       .  S
C337       C1998   1.534       .  S
C338        H345   1.087       .  S
C338        C339   1.361       .  D
C339        C340   1.546       .  S
C339        C794   1.493       .  S
C340        C344   1.550       .  S
C340        C342   1.548       .  S
C340        H346   1.109       .  S
C341        H347   1.080       .  S
C341        C342   1.375       .  D
C342        C906   1.498       .  S
C343        H348   1.087       .  S
C343        C344   1.360       .  D
C344        C725   1.487       .  S
C349        C350   1.541       .  S
C349        C355   1.542       .  S
C349        C353   1.535       .  S
C349       C1270   1.544       .  S
C350        H357   1.086       .  S
C350        C351   1.369       .  D
C351        C352   1.542       .  S
C351        C641   1.492       .  S
C352        C356   1.543       .  S
C352        C354   1.538       .  S
C352        H358   1.110       .  S
C353        H359   1.086       .  S
C353        C354   1.366       .  D
C354        C669   1.481       .  S
C355        H360   1.079       .  S
C355        C356   1.367       .  D
C356        C697   1.491       .  S
C361        C362   1.547       .  S
C361        C367   1.536       .  S
C361        C365   1.546   1_565  S
C361       C2334   1.542   1_565  S
C362        H369   1.080       .  S
C362        C363   1.362       .  D
C363        C364   1.531       .  S
C363        C613   1.477       .  S
C364        C368   1.532       .  S
C364        C366   1.539       .  S
C364        H370   1.111       .  S
C365        H371   1.085       .  S
C365        C366   1.373   1_545  D
C366        C585   1.490   1_565  S
C367        H372   1.087       .  S
C367        C368   1.363       .  D
C368        C557   1.478       .  S
C373        C374   1.533       .  S
C373        C379   1.549       .  S
C373        C377   1.540       .  S
C373        C738   1.546       .  S
C374        H381   1.085       .  S
C374        C375   1.365       .  D
C375        C376   1.545       .  S
C375       C2041   1.498       .  S
C376        C380   1.546       .  S
C376        C378   1.540       .  S
C376        H382   1.109   1_565  S
C377        H383   1.086       .  S
C377        C378   1.366       .  D
C378        C626   1.483       .  S
C379        H384   1.081       .  S
C379        C380   1.373       .  D
C380        C654   1.501   1_565  S
C385        C386   1.532       .  S
C385        C391   1.531       .  S
C385        C389   1.555       .  S
C385        C962   1.537       .  S
C386        H393   1.087       .  S
C386        C387   1.360       .  D
C387        C388   1.538       .  S
C387        C682   1.481       .  S
C388        C392   1.538       .  S
C388        C390   1.545       .  S
C388        H394   1.108       .  S
C389        H395   1.082       .  S
C389        C390   1.381       .  D
C390        C598   1.501       .  S
C391        H396   1.087       .  S
C391        C392   1.357       .  D
C392        C822   1.479       .  S
C397        C398   1.541       .  S
C397        C403   1.541       .  S
C397        C401   1.531       .  S
C397       C2418   1.538       .  S
C398        H405   1.085       .  S
C398        C399   1.370       .  D
C399        C400   1.544       .  S
C399        C514   1.494       .  S
C400        C404   1.538       .  S
C400        C402   1.538       .  S
C400        H406   1.111       .  S
C401        H407   1.086       .  S
C401        C402   1.365       .  D
C402        C529   1.482       .  S
C403        H408   1.084       .  S
C403        C404   1.364       .  D
C404        C570   1.480       .  S
C409        C410   1.534       .  S
C409        C415   1.535       .  S
C409        C413   1.547       .  S
C409       C1130   1.536       .  S
C410        H417   1.087       .  S
C410        C411   1.364       .  D
C411        C412   1.538       .  S
C411        C473   1.483       .  S
C412        C416   1.538       .  S
C412        C414   1.544       .  S
C412        H418   1.110       .  S
C413        H419   1.081   1_655  S
C413        C414   1.372       .  D
C414        C458   1.491       .  S
C415        H420   1.087       .  S
C415        C416   1.360       .  D
C416        C710   1.477       .  S
C421        C422   1.531       .  S
C421        C427   1.546       .  S
C421        C425   1.546       .  S
C421        C878   1.543       .  S
C422        H429   1.087       .  S
C422        C423   1.364       .  D
C423        C424   1.541       .  S
C423       C1018   1.493       .  S
C424        C428   1.543       .  S
C424        C426   1.536       .  S
C424        H430   1.110       .  S
C425        H431   1.085       .  S
C425        C426   1.368       .  D
C426        C486   1.484       .  S
C427        H432   1.084       .  S
C427        C428   1.372       .  D
C428        C501   1.493       .  S
C433        C434   1.537       .  S
C433        C439   1.543       .  S
C433        C437   1.541       .  S
C433       C2153   1.543       .  S
C434        H441   1.086       .  S
C434        C435   1.364       .  D
C435        C436   1.538       .  S
C435        C542   1.478       .  S
C436        C440   1.538       .  S
C436        C438   1.538       .  S
C436        H442   1.111       .  S
C437        H443   1.086       .  S
C437        C438   1.369       .  D
C438        C445   1.483       .  S
C439        H444   1.081       .  S
C439        C440   1.364       .  D
C440        C753   1.486       .  S
C445        C446   1.407       .  A
C445        C450   1.402       .  A
C446        C447   1.404       .  A
C446        N451   1.432       .  S
C447        C448   1.405       .  A
C447        H452   1.084       .  S
C448        C453   1.490   1_554  S
C448        C449   1.414       .  A
C449        C450   1.406       .  A
C449        N454   1.438   1_455  S
C450        H455   1.083       .  S
N451        H471   1.045       .  S
N451        H472   1.045       .  S
C453        C456   1.403   1_455  A
C453        C460   1.413       .  A
N454        H469   1.046       .  S
N454        H470   1.045       .  S
C456        C457   1.402       .  A
C456        H461   1.084   1_556  S
C457        C458   1.410       .  A
C457        N462   1.430       .  S
C458        C459   1.406   1_655  A
C459        C460   1.407       .  A
C459        H463   1.083       .  S
C460        N464   1.438       .  S
N462        H465   1.046       .  S
N462        H466   1.045       .  S
N464        H467   1.045       .  S
N464        H468   1.046       .  S
C473        C474   1.411       .  A
C473        C478   1.403       .  A
C474        C475   1.408       .  A
C474        N479   1.437       .  S
C475        C476   1.404       .  A
C475        H480   1.084       .  S
C476        C481   1.486       .  S
C476        C477   1.410       .  A
C477        C478   1.403       .  A
C477        N482   1.438       .  S
C478        H483   1.084       .  S
N479        H499   1.045       .  S
N479        H500   1.046       .  S
C481        C484   1.403       .  A
C481        C488   1.411       .  A
N482        H497   1.045       .  S
N482        H498   1.046       .  S
C484        C485   1.400       .  A
C484        H489   1.084       .  S
C485        C486   1.408       .  A
C485        N490   1.432       .  S
C486        C487   1.405       .  A
C487        C488   1.409       .  A
C487        H491   1.083       .  S
C488        N492   1.437       .  S
N490        H493   1.045       .  S
N490        H494   1.046       .  S
N492        H495   1.045       .  S
N492        H496   1.046       .  S
C501        C502   1.410       .  A
C501        C506   1.406       .  A
C502        C503   1.407       .  A
C502        N507   1.432       .  S
C503        C504   1.403   1_655  A
C503        H508   1.084   1_655  S
C504        C509   1.489   1_556  S
C504        C505   1.411   1_455  A
C505        C506   1.409       .  A
C505        N510   1.437   1_655  S
C506        H511   1.083       .  S
N507        H527   1.046       .  S
N507        H528   1.045       .  S
C509        C512   1.402       .  A
C509        C516   1.410       .  A
N510        H525   1.046   1_455  S
N510        H526   1.045       .  S
C512        C513   1.407       .  A
C512        H517   1.084   1_455  S
C513        C514   1.416       .  A
C513        N518   1.438       .  S
C514        C515   1.404       .  A
C515        C516   1.410       .  A
C515        H519   1.079       .  S
C516        N520   1.437   1_554  S
N518        H521   1.046       .  S
N518        H522   1.046   1_455  S
N520        H523   1.046       .  S
N520        H524   1.046       .  S
C529        C530   1.413       .  A
C529        C534   1.402       .  A
C530        C531   1.403       .  A
C530        N535   1.438       .  S
C531        C532   1.401       .  A
C531        H536   1.084       .  S
C532        C537   1.481       .  S
C532        C533   1.410       .  A
C533        C534   1.406       .  A
C533        N538   1.437       .  S
C534        H539   1.084       .  S
N535        H555   1.046       .  S
N535        H556   1.045       .  S
C537        C540   1.400       .  A
C537        C544   1.411       .  A
N538        H553   1.046       .  S
N538        H554   1.046       .  S
C540        C541   1.397       .  A
C540        H545   1.084       .  S
C541        C542   1.407       .  A
C541        N546   1.432       .  S
C542        C543   1.402       .  A
C543        C544   1.410       .  A
C543        H547   1.081       .  S
C544        N548   1.437       .  S
N546        H549   1.045       .  S
N546        H550   1.046       .  S
N548        H551   1.046       .  S
N548        H552   1.046       .  S
C557        C558   1.410       .  A
C557        C562   1.401       .  A
C558        C559   1.403       .  A
C558        N563   1.438       .  S
C559        C560   1.402       .  A
C559        H564   1.084       .  S
C560        C565   1.481       .  S
C560        C561   1.413       .  A
C561        C562   1.407       .  A
C561        N566   1.438       .  S
C562        H567   1.084       .  S
N563        H583   1.046       .  S
N563        H584   1.045       .  S
C565        C568   1.405       .  A
C565        C572   1.408       .  A
N566        H581   1.046       .  S
N566        H582   1.043       .  S
C568        C569   1.408       .  A
C568        H573   1.084       .  S
C569        C570   1.407       .  A
C569        N574   1.430       .  S
C570        C571   1.401       .  A
C571        C572   1.398       .  A
C571        H575   1.084       .  S
C572        N576   1.433       .  S
N574        H577   1.046       .  S
N574        H578   1.045       .  S
N576        H579   1.045       .  S
N576        H580   1.046       .  S
C585        C586   1.412       .  A
C585        C590   1.404       .  A
C586        C587   1.408       .  A
C586        N591   1.432       .  S
C587        C588   1.404       .  A
C587        H592   1.084       .  S
C588        C593   1.488   1_554  S
C588        C589   1.410       .  A
C589        C590   1.403       .  A
C589        N594   1.438       .  S
C590        H595   1.082   1_545  S
N591        H611   1.045       .  S
N591        H612   1.046       .  S
C593        C596   1.398       .  A
C593        C600   1.411       .  A
N594        H609   1.046       .  S
N594        H610   1.046   1_554  S
C596        C597   1.400       .  A
C596        H601   1.084   1_556  S
C597        C598   1.417       .  A
C597        N602   1.431       .  S
C598        C599   1.409       .  A
C599        C600   1.413       .  A
C599        H603   1.083       .  S
C600        N604   1.437       .  S
N602        H605   1.046       .  S
N602        H606   1.046       .  S
N604        H607   1.046       .  S
N604        H608   1.046       .  S
C613        C614   1.408       .  A
C613        C618   1.402       .  A
C614        C615   1.407       .  A
C614        N619   1.438       .  S
C615        C616   1.403       .  A
C615        H620   1.084       .  S
C616        C621   1.482       .  S
C616        C617   1.410       .  A
C617        C618   1.407       .  A
C617        N622   1.438   1_565  S
C618        H623   1.083   1_565  S
N619        H639   1.045       .  S
N619        H640   1.046       .  S
C621        C624   1.402       .  A
C621        C628   1.410       .  A
N622        H637   1.046       .  S
N622        H638   1.046       .  S
C624        C625   1.409       .  A
C624        H629   1.084       .  S
C625        C626   1.412       .  A
C625        N630   1.438       .  S
C626        C627   1.400       .  A
C627        C628   1.406       .  A
C627        H631   1.081       .  S
C628        N632   1.438       .  S
N630        H633   1.045       .  S
N630        H634   1.046       .  S
N632        H635   1.045       .  S
N632        H636   1.046       .  S
C641        C642   1.410       .  A
C641        C646   1.405       .  A
C642        C643   1.410       .  A
C642        N647   1.432       .  S
C643        C644   1.405       .  A
C643        H648   1.084       .  S
C644        C649   1.491   1_556  S
C644        C645   1.411       .  A
C645        C646   1.407       .  A
C645        N650   1.438       .  S
C646        H651   1.084       .  S
N647        H667   1.046       .  S
N647        H668   1.045       .  S
C649        C652   1.402       .  A
C649        C656   1.410       .  A
N650        H665   1.045       .  S
N650        H666   1.046       .  S
C652        C653   1.407       .  A
C652        H657   1.084       .  S
C653        C654   1.414       .  A
C653        N658   1.431       .  S
C654        C655   1.408       .  A
C655        C656   1.410       .  A
C655        H659   1.083       .  S
C656        N660   1.437   1_554  S
N658        H661   1.045       .  S
N658        H662   1.046   1_545  S
N660        H663   1.046   1_556  S
N660        H664   1.046       .  S
C669        C670   1.408       .  A
C669        C674   1.402       .  A
C670        C671   1.402       .  A
C670        N675   1.432       .  S
C671        C672   1.403       .  A
C671        H676   1.084       .  S
C672        C677   1.486       .  S
C672        C673   1.413       .  A
C673        C674   1.408       .  A
C673        N678   1.437       .  S
C674        H679   1.084       .  S
N675        H695   1.046       .  S
N675        H696   1.046       .  S
C677        C680   1.402       .  A
C677        C684   1.412       .  A
N678        H693   1.046       .  S
N678        H694   1.046       .  S
C680        C681   1.401       .  A
C680        H685   1.084       .  S
C681        C682   1.413       .  A
C681        N686   1.439       .  S
C682        C683   1.401       .  A
C683        C684   1.410       .  A
C683        H687   1.083       .  S
C684        N688   1.437       .  S
N686        H689   1.046       .  S
N686        H690   1.045       .  S
N688        H691   1.046       .  S
N688        H692   1.045       .  S
C697        C698   1.409       .  A
C697        C702   1.405       .  A
C698        C699   1.408       .  A
C698        N703   1.431       .  S
C699        C700   1.406       .  A
C699        H704   1.083       .  S
C700        C705   1.491       .  S
C700        C701   1.413       .  A
C701        C702   1.403       .  A
C701        N706   1.439       .  S
C702        H707   1.084       .  S
N703        H723   1.045       .  S
N703        H724   1.046       .  S
C705        C708   1.405       .  A
C705        C712   1.414       .  A
N706        H721   1.045       .  S
N706        H722   1.046       .  S
C708        C709   1.405       .  A
C708        H713   1.084       .  S
C709        C710   1.407       .  A
C709        N714   1.437       .  S
C710        C711   1.402       .  A
C711        C712   1.408       .  A
C711        H715   1.084       .  S
C712        N716   1.438       .  S
N714        H717   1.046       .  S
N714        H718   1.045       .  S
N716        H719   1.046       .  S
N716        H720   1.046       .  S
C725        C726   1.409       .  A
C725        C730   1.403       .  A
C726        C727   1.409       .  A
C726        N731   1.436       .  S
C727        C728   1.407       .  A
C727        H732   1.083       .  S
C728        C733   1.499       .  S
C728        C729   1.413       .  A
C729        C730   1.408       .  A
C729        N734   1.432       .  S
C730        H735   1.084       .  S
N731        H751   1.045       .  S
N731        H752   1.046       .  S
C733        C736   1.403       .  A
C733        C740   1.410       .  A
N734        H749   1.046       .  S
N734        H750   1.046       .  S
C736        C737   1.405       .  A
C736        H741   1.084       .  S
C737        C738   1.420       .  A
C737        N742   1.433       .  S
C738        C739   1.413       .  A
C739        C740   1.410       .  A
C739        H743   1.077       .  S
C740        N744   1.432       .  S
N742        H745   1.046       .  S
N742        H746   1.045       .  S
N744        H747   1.045       .  S
N744        H748   1.046       .  S
C753        C754   1.410       .  A
C753        C758   1.404       .  A
C754        C755   1.411       .  A
C754        N759   1.436       .  S
C755        C756   1.404       .  A
C755        H760   1.084       .  S
C756        C761   1.480       .  S
C756        C757   1.408       .  A
C757        C758   1.401       .  A
C757        N762   1.439       .  S
C758        H763   1.084       .  S
N759        H779   1.045       .  S
N759        H780   1.045       .  S
C761        C764   1.397       .  A
C761        C768   1.407       .  A
N762        H777   1.046       .  S
N762        H778   1.044       .  S
C764        C765   1.400       .  A
C764        H769   1.084       .  S
C765        C766   1.421       .  A
C765        N770   1.434       .  S
C766        C767   1.413       .  A
C767        C768   1.411       .  A
C767        H771   1.077       .  S
C768        N772   1.438       .  S
N770        H773   1.046       .  S
N770        H774   1.045       .  S
N772        H775   1.045       .  S
N772        H776   1.044       .  S
C781        C782   1.406       .  A
C781        C786   1.399       .  A
C782        C783   1.402       .  A
C782        N787   1.432       .  S
C783        C784   1.401       .  A
C783        H788   1.084       .  S
C784        C789   1.479       .  S
C784        C785   1.413       .  A
C785        C786   1.406       .  A
C785        N790   1.438       .  S
C786        H791   1.084       .  S
N787        H807   1.046       .  S
N787        H808   1.045       .  S
C789        C792   1.403       .  A
C789        C796   1.413       .  A
N790        H805   1.046       .  S
N790        H806   1.044       .  S
C792        C793   1.406       .  A
C792        H797   1.084       .  S
C793        C794   1.408       .  A
C793        N798   1.429       .  S
C794        C795   1.410       .  A
C795        C796   1.399       .  A
C795        H799   1.084       .  S
C796        N800   1.439       .  S
N798        H801   1.045       .  S
N798        H802   1.046       .  S
N800        H803   1.046       .  S
N800        H804   1.043       .  S
C809        C810   1.423       .  A
C809        C814   1.413       .  A
C810        C811   1.408       .  A
C810        N815   1.438       .  S
C811        C812   1.400       .  A
C811        H816   1.084       .  S
C812        C817   1.487       .  S
C812        C813   1.406       .  A
C813        C814   1.408       .  A
C813        N818   1.438       .  S
C814        H819   1.078       .  S
N815        H835   1.045       .  S
N815        H836   1.046       .  S
C817        C820   1.403       .  A
C817        C824   1.412       .  A
N818        H833   1.046       .  S
N818        H834   1.046       .  S
C820        C821   1.405       .  A
C820        H825   1.084       .  S
C821        C822   1.409       .  A
C821        N826   1.438       .  S
C822        C823   1.402       .  A
C823        C824   1.410       .  A
C823        H827   1.084       .  S
C824        N828   1.437       .  S
N826        H829   1.045       .  S
N826        H830   1.045       .  S
N828        H831   1.045       .  S
N828        H832   1.046       .  S
C837        C838   1.418       .  A
C837        C842   1.407       .  A
C838        C839   1.408       .  A
C838        N843   1.432       .  S
C839        C840   1.403       .  A
C839        H844   1.083   1_554  S
C840        C845   1.496   1_554  S
C840        C841   1.412       .  A
C841        C842   1.406       .  A
C841        N846   1.438       .  S
C842        H847   1.080       .  S
N843        H863   1.045       .  S
N843        H864   1.046       .  S
C845        C848   1.403       .  A
C845        C852   1.413       .  A
N846        H861   1.045       .  S
N846        H862   1.046       .  S
C848        C849   1.403       .  A
C848        H853   1.084       .  S
C849        C850   1.414       .  A
C849        N854   1.431       .  S
C850        C851   1.410       .  A
C851        C852   1.411       .  A
C851        H855   1.083       .  S
C852        N856   1.438       .  S
N854        H857   1.046       .  S
N854        H858   1.045       .  S
N856        H859   1.046       .  S
N856        H860   1.046   1_556  S
C865        C866   1.414       .  A
C865        C870   1.407       .  A
C866        C867   1.415       .  A
C866        N871   1.437       .  S
C867        C868   1.409       .  A
C867        H872   1.083       .  S
C868        C873   1.501       .  S
C868        C869   1.414       .  A
C869        C870   1.404       .  A
C869        N874   1.439       .  S
C870        H875   1.083       .  S
N871        H891   1.045       .  S
N871        H892   1.046       .  S
C873        C876   1.402       .  A
C873        C880   1.412       .  A
N874        H889   1.045       .  S
N874        H890   1.046       .  S
C876        C877   1.404       .  A
C876        H881   1.084       .  S
C877        C878   1.420       .  A
C877        N882   1.432       .  S
C878        C879   1.413       .  A
C879        C880   1.413       .  A
C879        H883   1.080       .  S
C880        N884   1.438       .  S
N882        H885   1.046       .  S
N882        H886   1.046       .  S
N884        H887   1.045       .  S
N884        H888   1.046       .  S
C893        C894   1.419       .  A
C893        C898   1.413       .  A
C894        C895   1.405       .  A
C894        N899   1.429       .  S
C895        C896   1.400       .  A
C895        H900   1.084       .  S
C896        C901   1.497   1_556  S
C896        C897   1.411       .  A
C897        C898   1.413       .  A
C897        N902   1.438       .  S
C898        H903   1.082       .  S
N899        H919   1.046       .  S
N899        H920   1.046       .  S
C901        C904   1.405       .  A
C901        C908   1.414       .  A
N902        H917   1.045       .  S
N902        H918   1.046       .  S
C904        C905   1.410       .  A
C904        H909   1.084       .  S
C905        C906   1.414       .  A
C905        N910   1.432       .  S
C906        C907   1.404       .  A
C907        C908   1.408       .  A
C907        H911   1.083       .  S
C908        N912   1.438   1_554  S
N910        H913   1.046       .  S
N910        H914   1.046       .  S
N912        H915   1.045   1_556  S
N912        H916   1.046       .  S
C921        C922   1.405       .  A
C921        C926   1.400       .  A
C922        C923   1.406       .  A
C922        N927   1.432       .  S
C923        C924   1.405       .  A
C923        H928   1.084       .  S
C924        C929   1.488       .  S
C924        C925   1.412       .  A
C925        C926   1.407       .  A
C925        N930   1.438       .  S
C926        H931   1.082       .  S
N927        H947   1.045       .  S
N927        H948   1.045       .  S
C929        C932   1.403       .  A
C929        C936   1.411       .  A
N930        H945   1.046       .  S
N930        H946   1.045       .  S
C932        C933   1.404       .  A
C932        H937   1.084       .  S
C933        C934   1.418       .  A
C933        N938   1.439       .  S
C934        C935   1.403       .  A
C935        C936   1.408       .  A
C935        H939   1.084       .  S
C936        N940   1.437       .  S
N938        H941   1.046       .  S
N938        H942   1.043       .  S
N940        H943   1.045       .  S
N940        H944   1.046       .  S
C949        C950   1.417       .  A
C949        C954   1.409       .  A
C950        C951   1.412       .  A
C950        N955   1.437       .  S
C951        C952   1.403       .  A
C951        H956   1.084       .  S
C952        C957   1.481       .  S
C952        C953   1.405       .  A
C953        C954   1.402       .  A
C953        N958   1.438       .  S
C954        H959   1.083       .  S
N955        H975   1.046       .  S
N955        H976   1.046       .  S
C957        C960   1.394       .  A
C957        C964   1.409       .  A
N958        H973   1.046       .  S
N958        H974   1.045       .  S
C960        C961   1.397       .  A
C960        H965   1.084       .  S
C961        C962   1.421       .  A
C961        N966   1.434       .  S
C962        C963   1.412       .  A
C963        C964   1.415       .  A
C963        H967   1.078       .  S
C964        N968   1.437       .  S
N966        H969   1.046       .  S
N966        H970   1.046       .  S
N968        H971   1.045       .  S
N968        H972   1.045       .  S
C977        C978   1.413       .  A
C977        C982   1.404       .  A
C978        C979   1.406       .  A
C978        N983   1.438       .  S
C979        C980   1.401       .  A
C979        H984   1.084       .  S
C980        C985   1.473       .  S
C980        C981   1.407       .  A
C981        C982   1.402       .  A
C981        N986   1.439       .  S
C982        H987   1.084       .  S
N983       H1003   1.046       .  S
N983       H1004   1.046       .  S
C985        C988   1.400       .  A
C985        C992   1.407       .  A
N986       H1001   1.046       .  S
N986       H1002   1.044       .  S
C988        C989   1.406       .  A
C988        H993   1.084       .  S
C989        C990   1.415       .  A
C989        N994   1.437       .  S
C990        C991   1.406       .  A
C991        C992   1.401       .  A
C991        H995   1.084   1_565  S
C992        N996   1.439       .  S
N994        H997   1.046       .  S
N994        H998   1.045       .  S
N996        H999   1.046       .  S
N996       H1000   1.044       .  S
C1005      C1006   1.417       .  A
C1005      C1010   1.409       .  A
C1006      C1007   1.411       .  A
C1006      N1011   1.437       .  S
C1007      C1008   1.404       .  A
C1007      H1012   1.084       .  S
C1008      C1013   1.488       .  S
C1008      C1009   1.408       .  A
C1009      C1010   1.406       .  A
C1009      N1014   1.438       .  S
C1010      H1015   1.083   1_655  S
N1011      H1031   1.045       .  S
N1011      H1032   1.046       .  S
C1013      C1016   1.406       .  A
C1013      C1020   1.409       .  A
N1014      H1029   1.046   1_655  S
N1014      H1030   1.046       .  S
C1016      C1017   1.410       .  A
C1016      H1021   1.084   1_655  S
C1017      C1018   1.410       .  A
C1017      N1022   1.431       .  S
C1018      C1019   1.406       .  A
C1019      C1020   1.404       .  A
C1019      H1023   1.083       .  S
C1020      N1024   1.438       .  S
N1022      H1025   1.046   1_655  S
N1022      H1026   1.045   1_655  S
N1024      H1027   1.046       .  S
N1024      H1028   1.046       .  S
C1033      C1034   1.413       .  A
C1033      C1038   1.404       .  A
C1034      C1035   1.404       .  A
C1034      N1039   1.438       .  S
C1035      C1036   1.402       .  A
C1035      H1040   1.084       .  S
C1036      C1041   1.481       .  S
C1036      C1037   1.410       .  A
C1037      C1038   1.403       .  A
C1037      N1042   1.438       .  S
C1038      H1043   1.084       .  S
N1039      H1059   1.046       .  S
N1039      H1060   1.046       .  S
C1041      C1044   1.402       .  A
C1041      C1048   1.409       .  A
N1042      H1057   1.046       .  S
N1042      H1058   1.046       .  S
C1044      C1045   1.403       .  A
C1044      H1049   1.084       .  S
C1045      C1046   1.415       .  A
C1045      N1050   1.438       .  S
C1046      C1047   1.404       .  A
C1047      C1048   1.404       .  A
C1047      H1051   1.083       .  S
C1048      N1052   1.438       .  S
N1050      H1053   1.046       .  S
N1050      H1054   1.046       .  S
N1052      H1055   1.046       .  S
N1052      H1056   1.046       .  S
C1061      C1062   1.414       .  A
C1061      C1066   1.407       .  A
C1062      C1063   1.409       .  A
C1062      N1067   1.437       .  S
C1063      C1064   1.406       .  A
C1063      H1068   1.083       .  S
C1064      C1069   1.495       .  S
C1064      C1065   1.412       .  A
C1065      C1066   1.405       .  A
C1065      N1070   1.438       .  S
C1066      H1071   1.083       .  S
N1067      H1087   1.045       .  S
N1067      H1088   1.046       .  S
C1069      C1072   1.407       .  A
C1069      C1076   1.415       .  A
N1070      H1085   1.046       .  S
N1070      H1086   1.045       .  S
C1072      C1073   1.407       .  A
C1072      H1077   1.083       .  S
C1073      C1074   1.408       .  A
C1073      N1078   1.432       .  S
C1074      C1075   1.403       .  A
C1075      C1076   1.406       .  A
C1075      H1079   1.084       .  S
C1076      N1080   1.438       .  S
N1078      H1081   1.046       .  S
N1078      H1082   1.045       .  S
N1080      H1083   1.045       .  S
N1080      H1084   1.046       .  S
C1089      C1090   1.416       .  A
C1089      C1094   1.406       .  A
C1090      C1091   1.407       .  A
C1090      N1095   1.438       .  S
C1091      C1092   1.401       .  A
C1091      H1096   1.084       .  S
C1092      C1097   1.484       .  S
C1092      C1093   1.410       .  A
C1093      C1094   1.405       .  A
C1093      N1098   1.438       .  S
C1094      H1099   1.083       .  S
N1095      H1115   1.046       .  S
N1095      H1116   1.046       .  S
C1097      C1100   1.401       .  A
C1097      C1104   1.411       .  A
N1098      H1113   1.046       .  S
N1098      H1114   1.046       .  S
C1100      C1101   1.404       .  A
C1100      H1105   1.084       .  S
C1101      C1102   1.414       .  A
C1101      N1106   1.438       .  S
C1102      C1103   1.404       .  A
C1103      C1104   1.407       .  A
C1103      H1107   1.084       .  S
C1104      N1108   1.438       .  S
N1106      H1109   1.046       .  S
N1106      H1110   1.046       .  S
N1108      H1111   1.046       .  S
N1108      H1112   1.046       .  S
C1117      C1118   1.417       .  A
C1117      C1122   1.408   1_455  A
C1118      C1119   1.411       .  A
C1118      N1123   1.437       .  S
C1119      C1120   1.401   1_455  A
C1119      H1124   1.084       .  S
C1120      C1125   1.479       .  S
C1120      C1121   1.405       .  A
C1121      C1122   1.402       .  A
C1121      N1126   1.438       .  S
C1122      H1127   1.083       .  S
N1123      H1143   1.045       .  S
N1123      H1144   1.046       .  S
C1125      C1128   1.396       .  A
C1125      C1132   1.406   1_655  A
N1126      H1141   1.046       .  S
N1126      H1142   1.045       .  S
C1128      C1129   1.400       .  A
C1128      H1133   1.084       .  S
C1129      C1130   1.420       .  A
C1129      N1134   1.434       .  S
C1130      C1131   1.413       .  A
C1131      C1132   1.409   1_655  A
C1131      H1135   1.076   1_655  S
C1132      N1136   1.438       .  S
N1134      H1137   1.045       .  S
N1134      H1138   1.046       .  S
N1136      H1139   1.045       .  S
N1136      H1140   1.045       .  S
C1145      C1146   1.419       .  A
C1145      C1150   1.404       .  A
C1146      C1147   1.400       .  A
C1146      N1151   1.440       .  S
C1147      C1148   1.400       .  A
C1147      H1152   1.084       .  S
C1148      C1153   1.480       .  S
C1148      C1149   1.408       .  A
C1149      C1150   1.407       .  A
C1149      N1154   1.437       .  S
C1150      H1155   1.084       .  S
N1151      H1171   1.042       .  S
N1151      H1172   1.046       .  S
C1153      C1156   1.401       .  A
C1153      C1160   1.407       .  A
N1154      H1169   1.046       .  S
N1154      H1170   1.046       .  S
C1156      C1157   1.408       .  A
C1156      H1161   1.084       .  S
C1157      C1158   1.417       .  A
C1157      N1162   1.438       .  S
C1158      C1159   1.405       .  A
C1159      C1160   1.403       .  A
C1159      H1163   1.083       .  S
C1160      N1164   1.438       .  S
N1162      H1165   1.046       .  S
N1162      H1166   1.045       .  S
N1164      H1167   1.045       .  S
N1164      H1168   1.046       .  S
C1173      C1174   1.420       .  A
C1173      C1178   1.413       .  A
C1174      C1175   1.411       .  A
C1174      N1179   1.432       .  S
C1175      C1176   1.402       .  A
C1175      H1180   1.084       .  S
C1176      C1181   1.493       .  S
C1176      C1177   1.410       .  A
C1177      C1178   1.407       .  A
C1177      N1182   1.439       .  S
C1178      H1183   1.075       .  S
N1179      H1199   1.046       .  S
N1179      H1200   1.045       .  S
C1181      C1184   1.400       .  A
C1181      C1188   1.414       .  A
N1182      H1197   1.045       .  S
N1182      H1198   1.046       .  S
C1184      C1185   1.402       .  A
C1184      H1189   1.084       .  S
C1185      C1186   1.416       .  A
C1185      N1190   1.433       .  S
C1186      C1187   1.408       .  A
C1187      C1188   1.415       .  A
C1187      H1191   1.083       .  S
C1188      N1192   1.437       .  S
N1190      H1193   1.046       .  S
N1190      H1194   1.046       .  S
N1192      H1195   1.045       .  S
N1192      H1196   1.045       .  S
C1201      C1202   1.418       .  A
C1201      C1206   1.407       .  A
C1202      C1203   1.402       .  A
C1202      N1207   1.438       .  S
C1203      C1204   1.399       .  A
C1203      H1208   1.084       .  S
C1204      C1209   1.475       .  S
C1204      C1205   1.407       .  A
C1205      C1206   1.403       .  A
C1205      N1210   1.438       .  S
C1206      H1211   1.083       .  S
N1207      H1227   1.045       .  S
N1207      H1228   1.046       .  S
C1209      C1212   1.399       .  A
C1209      C1216   1.408       .  A
N1210      H1225   1.046       .  S
N1210      H1226   1.046       .  S
C1212      C1213   1.404       .  A
C1212      H1217   1.084       .  S
C1213      C1214   1.416       .  A
C1213      N1218   1.438       .  S
C1214      C1215   1.406       .  A
C1215      C1216   1.402       .  A
C1215      H1219   1.083       .  S
C1216      N1220   1.438       .  S
N1218      H1221   1.046       .  S
N1218      H1222   1.046       .  S
N1220      H1223   1.046       .  S
N1220      H1224   1.046       .  S
C1229      C1230   1.415       .  A
C1229      C1234   1.407       .  A
C1230      C1231   1.406       .  A
C1230      N1235   1.438       .  S
C1231      C1232   1.404       .  A
C1231      H1236   1.084       .  S
C1232      C1237   1.489       .  S
C1232      C1233   1.410       .  A
C1233      C1234   1.407       .  A
C1233      N1238   1.438       .  S
C1234      H1239   1.083       .  S
N1235      H1255   1.045       .  S
N1235      H1256   1.046       .  S
C1237      C1240   1.405       .  A
C1237      C1244   1.409       .  A
N1238      H1253   1.046       .  S
N1238      H1254   1.046       .  S
C1240      C1241   1.410       .  A
C1240      H1245   1.084       .  S
C1241      C1242   1.416       .  A
C1241      N1246   1.438       .  S
C1242      C1243   1.406       .  A
C1243      C1244   1.403       .  A
C1243      H1247   1.083       .  S
C1244      N1248   1.438       .  S
N1246      H1249   1.046       .  S
N1246      H1250   1.046       .  S
N1248      H1251   1.046       .  S
N1248      H1252   1.045       .  S
C1257      C1258   1.418       .  A
C1257      C1262   1.407       .  A
C1258      C1259   1.407       .  A
C1258      N1263   1.438       .  S
C1259      C1260   1.402       .  A
C1259      H1264   1.084       .  S
C1260      C1265   1.487       .  S
C1260      C1261   1.409       .  A
C1261      C1262   1.407       .  A
C1261      N1266   1.438       .  S
C1262      H1267   1.083       .  S
N1263      H1283   1.045       .  S
N1263      H1284   1.046       .  S
C1265      C1268   1.400       .  A
C1265      C1272   1.407       .  A
N1266      H1281   1.046       .  S
N1266      H1282   1.046       .  S
C1268      C1269   1.406       .  A
C1268      H1273   1.084       .  S
C1269      C1270   1.420       .  A
C1269      N1274   1.433       .  S
C1270      C1271   1.414       .  A
C1271      C1272   1.406       .  A
C1271      H1275   1.073       .  S
C1272      N1276   1.439       .  S
N1274      H1277   1.045       .  S
N1274      H1278   1.046       .  S
N1276      H1279   1.046       .  S
N1276      H1280   1.046       .  S
C1285      C1286   1.416       .  A
C1285      C1290   1.408       .  A
C1286      C1287   1.411       .  A
C1286      N1291   1.437       .  S
C1287      C1288   1.403       .  A
C1287      H1292   1.084       .  S
C1288      C1293   1.481       .  S
C1288      C1289   1.406       .  A
C1289      C1290   1.401       .  A
C1289      N1294   1.439       .  S
C1290      H1295   1.083       .  S
N1291      H1311   1.046       .  S
N1291      H1312   1.046       .  S
C1293      C1296   1.398       .  A
C1293      C1300   1.406       .  A
N1294      H1309   1.046       .  S
N1294      H1310   1.046       .  S
C1296      C1297   1.401       .  A
C1296      H1301   1.084       .  S
C1297      C1298   1.418       .  A
C1297      N1302   1.433       .  S
C1298      C1299   1.413       .  A
C1299      C1300   1.407       .  A
C1299      H1303   1.076       .  S
C1300      N1304   1.438       .  S
N1302      H1305   1.046       .  S
N1302      H1306   1.046       .  S
N1304      H1307   1.046       .  S
N1304      H1308   1.045       .  S
C1313      C1314   1.421       .  A
C1313      C1318   1.405       .  A
C1314      C1315   1.405       .  A
C1314      N1319   1.438       .  S
C1315      C1316   1.401       .  A
C1315      H1320   1.084       .  S
C1316      C1321   1.489       .  S
C1316      C1317   1.410       .  A
C1317      C1318   1.408       .  A
C1317      N1322   1.437       .  S
C1318      H1323   1.080       .  S
N1319      H1339   1.043       .  S
N1319      H1340   1.046       .  S
C1321      C1324   1.404       .  A
C1321      C1328   1.413       .  A
N1322      H1337   1.045       .  S
N1322      H1338   1.046       .  S
C1324      C1325   1.403       .  A
C1324      H1329   1.084       .  S
C1325      C1326   1.408       .  A
C1325      N1330   1.432       .  S
C1326      C1327   1.403       .  A
C1327      C1328   1.407       .  A
C1327      H1331   1.084   1_545  S
C1328      N1332   1.438       .  S
N1330      H1333   1.046       .  S
N1330      H1334   1.045       .  S
N1332      H1335   1.046       .  S
N1332      H1336   1.045       .  S
C1341      C1342   1.407       .  A
C1341      C1346   1.400       .  A
C1342      C1343   1.407       .  A
C1342      N1347   1.438       .  S
C1343      C1344   1.407       .  A
C1343      H1348   1.083       .  S
C1344      C1349   1.497       .  S
C1344      C1345   1.417       .  A
C1345      C1346   1.407       .  A
C1345      N1350   1.438   1_565  S
C1346      H1351   1.083   1_565  S
N1347      H1367   1.045       .  S
N1347      H1368   1.046       .  S
C1349      C1352   1.402       .  A
C1349      C1356   1.414       .  A
N1350      H1365   1.046       .  S
N1350      H1366   1.046       .  S
C1352      C1353   1.407       .  A
C1352      H1357   1.084       .  S
C1353      C1354   1.418       .  A
C1353      N1358   1.429       .  S
C1354      C1355   1.409       .  A
C1355      C1356   1.406       .  A
C1355      H1359   1.082       .  S
C1356      N1360   1.439       .  S
N1358      H1361   1.046       .  S
N1358      H1362   1.046       .  S
N1360      H1363   1.046       .  S
N1360      H1364   1.045       .  S
C1369      C1370   1.413       .  A
C1369      C1374   1.406       .  A
C1370      C1371   1.403       .  A
C1370      N1375   1.438       .  S
C1371      C1372   1.400       .  A
C1371      H1376   1.084       .  S
C1372      C1377   1.483       .  S
C1372      C1373   1.411       .  A
C1373      C1374   1.412       .  A
C1373      N1378   1.437       .  S
C1374      H1379   1.084       .  S
N1375      H1395   1.046       .  S
N1375      H1396   1.046       .  S
C1377      C1380   1.400       .  A
C1377      C1384   1.410       .  A
N1378      H1393   1.046       .  S
N1378      H1394   1.044       .  S
C1380      C1381   1.407       .  A
C1380      H1385   1.084       .  S
C1381      C1382   1.416       .  A
C1381      N1386   1.437       .  S
C1382      C1383   1.407       .  A
C1383      C1384   1.408       .  A
C1383      H1387   1.083       .  S
C1384      N1388   1.438       .  S
N1386      H1389   1.046       .  S
N1386      H1390   1.045       .  S
N1388      H1391   1.046       .  S
N1388      H1392   1.044       .  S
C1397      C1398   1.411       .  A
C1397      C1402   1.401       .  A
C1398      C1399   1.408       .  A
C1398      N1403   1.437       .  S
C1399      C1400   1.402       .  A
C1399      H1404   1.084       .  S
C1400      C1405   1.482       .  S
C1400      C1401   1.409       .  A
C1401      C1402   1.406       .  A
C1401      N1406   1.438       .  S
C1402      H1407   1.080       .  S
N1403      H1423   1.045   1_545  S
N1403      H1424   1.046       .  S
C1405      C1408   1.403       .  A
C1405      C1412   1.408       .  A
N1406      H1421   1.046       .  S
N1406      H1422   1.045       .  S
C1408      C1409   1.410       .  A
C1408      H1413   1.084       .  S
C1409      C1410   1.412       .  A
C1409      N1414   1.437       .  S
C1410      C1411   1.406       .  A
C1411      C1412   1.404       .  A
C1411      H1415   1.083       .  S
C1412      N1416   1.438       .  S
N1414      H1417   1.046       .  S
N1414      H1418   1.046       .  S
N1416      H1419   1.046       .  S
N1416      H1420   1.045       .  S
C1425      C1426   1.409       .  A
C1425      C1430   1.402       .  A
C1426      C1427   1.408       .  A
C1426      N1431   1.437       .  S
C1427      C1428   1.406       .  A
C1427      H1432   1.083       .  S
C1428      C1433   1.489       .  S
C1428      C1429   1.413       .  A
C1429      C1430   1.405       .  A
C1429      N1434   1.438       .  S
C1430      H1435   1.084       .  S
N1431      H1451   1.046       .  S
N1431      H1452   1.046       .  S
C1433      C1436   1.402       .  A
C1433      C1440   1.414       .  A
N1434      H1449   1.046       .  S
N1434      H1450   1.045       .  S
C1436      C1437   1.401       .  A
C1436      H1441   1.084       .  S
C1437      C1438   1.409       .  A
C1437      N1442   1.437       .  S
C1438      C1439   1.403       .  A
C1439      C1440   1.412       .  A
C1439      H1443   1.084       .  S
C1440      N1444   1.437       .  S
N1442      H1445   1.045       .  S
N1442      H1446   1.045       .  S
N1444      H1447   1.046       .  S
N1444      H1448   1.046       .  S
C1453      C1454   1.411       .  A
C1453      C1458   1.404       .  A
C1454      C1455   1.409       .  A
C1454      N1459   1.434       .  S
C1455      C1456   1.404       .  A
C1455      H1460   1.084       .  S
C1456      C1461   1.491       .  S
C1456      C1457   1.413       .  A
C1457      C1458   1.406       .  A
C1457      N1462   1.438       .  S
C1458      H1463   1.084       .  S
N1459      H1479   1.043       .  S
N1459      H1480   1.046       .  S
C1461      C1464   1.405       .  A
C1461      C1468   1.413       .  A
N1462      H1477   1.046       .  S
N1462      H1478   1.046       .  S
C1464      C1465   1.409       .  A
C1464      H1469   1.084       .  S
C1465      C1466   1.410       .  A
C1465      N1470   1.437       .  S
C1466      C1467   1.402       .  A
C1467      C1468   1.405       .  A
C1467      H1471   1.084       .  S
C1468      N1472   1.438       .  S
N1470      H1473   1.046       .  S
N1470      H1474   1.045       .  S
N1472      H1475   1.046       .  S
N1472      H1476   1.046       .  S
C1481      C1482   1.418       .  A
C1481      C1486   1.406   1_455  A
C1482      C1483   1.406       .  A
C1482      N1487   1.438       .  S
C1483      C1484   1.399       .  A
C1483      H1488   1.084       .  S
C1484      C1489   1.482   1_455  S
C1484      C1485   1.409   1_455  A
C1485      C1486   1.408       .  A
C1485      N1490   1.438       .  S
C1486      H1491   1.083       .  S
N1487      H1507   1.046       .  S
N1487      H1508   1.046       .  S
C1489      C1492   1.399   1_655  A
C1489      C1496   1.405       .  A
N1490      H1505   1.046       .  S
N1490      H1506   1.045       .  S
C1492      C1493   1.410   1_455  A
C1492      H1497   1.084       .  S
C1493      C1494   1.423       .  A
C1493      N1498   1.438   1_655  S
C1494      C1495   1.413       .  A
C1495      C1496   1.404       .  A
C1495      H1499   1.076       .  S
C1496      N1500   1.439       .  S
N1498      H1501   1.045       .  S
N1498      H1502   1.045       .  S
N1500      H1503   1.046       .  S
N1500      H1504   1.045       .  S
C1509      C1510   1.414   1_655  A
C1509      C1514   1.407       .  A
C1510      C1511   1.405       .  A
C1510      N1515   1.432       .  S
C1511      C1512   1.401       .  A
C1511      H1516   1.084       .  S
C1512      C1517   1.479       .  S
C1512      C1513   1.407   1_455  A
C1513      C1514   1.405       .  A
C1513      N1518   1.438       .  S
C1514      H1519   1.082       .  S
N1515      H1535   1.046       .  S
N1515      H1536   1.046       .  S
C1517      C1520   1.401       .  A
C1517      C1524   1.408       .  A
N1518      H1533   1.045       .  S
N1518      H1534   1.045       .  S
C1520      C1521   1.406       .  A
C1520      H1525   1.084       .  S
C1521      C1522   1.410       .  A
C1521      N1526   1.436       .  S
C1522      C1523   1.402       .  A
C1523      C1524   1.407       .  A
C1523      H1527   1.082       .  S
C1524      N1528   1.438       .  S
N1526      H1529   1.046       .  S
N1526      H1530   1.044       .  S
N1528      H1531   1.046       .  S
N1528      H1532   1.045       .  S
C1537      C1538   1.418       .  A
C1537      C1542   1.412       .  A
C1538      C1539   1.402       .  A
C1538      N1543   1.433       .  S
C1539      C1540   1.400       .  A
C1539      H1544   1.084       .  S
C1540      C1545   1.488       .  S
C1540      C1541   1.410   1_655  A
C1541      C1542   1.406   1_455  A
C1541      N1546   1.439       .  S
C1542      H1547   1.075   1_655  S
N1543      H1563   1.045       .  S
N1543      H1564   1.046       .  S
C1545      C1548   1.401   1_655  A
C1545      C1552   1.412       .  A
N1546      H1561   1.045       .  S
N1546      H1562   1.046       .  S
C1548      C1549   1.402       .  A
C1548      H1553   1.084       .  S
C1549      C1550   1.418       .  A
C1549      N1554   1.438       .  S
C1550      C1551   1.406       .  A
C1551      C1552   1.408   1_455  A
C1551      H1555   1.083       .  S
C1552      N1556   1.438       .  S
N1554      H1557   1.046       .  S
N1554      H1558   1.046       .  S
N1556      H1559   1.046       .  S
N1556      H1560   1.046   1_655  S
C1565      C1566   1.411       .  A
C1565      C1570   1.406       .  A
C1566      C1567   1.407       .  A
C1566      N1571   1.431       .  S
C1567      C1568   1.404       .  A
C1567      H1572   1.084       .  S
C1568      C1573   1.488       .  S
C1568      C1569   1.411       .  A
C1569      C1570   1.405       .  A
C1569      N1574   1.438       .  S
C1570      H1575   1.083       .  S
N1571      H1591   1.046       .  S
N1571      H1592   1.045       .  S
C1573      C1576   1.405       .  A
C1573      C1580   1.412       .  A
N1574      H1589   1.046       .  S
N1574      H1590   1.046       .  S
C1576      C1577   1.406       .  A
C1576      H1581   1.084       .  S
C1577      C1578   1.406       .  A
C1577      N1582   1.431       .  S
C1578      C1579   1.402       .  A
C1579      C1580   1.407       .  A
C1579      H1583   1.084       .  S
C1580      N1584   1.438       .  S
N1582      H1585   1.045       .  S
N1582      H1586   1.046       .  S
N1584      H1587   1.046       .  S
N1584      H1588   1.046       .  S
C1593      C1594   1.413       .  A
C1593      C1598   1.402       .  A
C1594      C1595   1.403       .  A
C1594      N1599   1.438       .  S
C1595      C1596   1.401       .  A
C1595      H1600   1.084       .  S
C1596      C1601   1.484       .  S
C1596      C1597   1.411       .  A
C1597      C1598   1.411       .  A
C1597      N1602   1.436       .  S
C1598      H1603   1.084       .  S
N1599      H1619   1.044       .  S
N1599      H1620   1.045   1_655  S
C1601      C1604   1.402       .  A
C1601      C1608   1.411       .  A
N1602      H1617   1.046       .  S
N1602      H1618   1.045       .  S
C1604      C1605   1.405       .  A
C1604      H1609   1.084       .  S
C1605      C1606   1.411       .  A
C1605      N1610   1.438       .  S
C1606      C1607   1.402       .  A
C1607      C1608   1.408       .  A
C1607      H1611   1.083       .  S
C1608      N1612   1.437       .  S
N1610      H1613   1.046       .  S
N1610      H1614   1.045       .  S
N1612      H1615   1.046       .  S
N1612      H1616   1.045       .  S
C1621      C1622   1.418       .  A
C1621      C1626   1.408       .  A
C1622      C1623   1.411       .  A
C1622      N1627   1.437       .  S
C1623      C1624   1.402       .  A
C1623      H1628   1.084       .  S
C1624      C1629   1.483       .  S
C1624      C1625   1.405       .  A
C1625      C1626   1.403       .  A
C1625      N1630   1.438       .  S
C1626      H1631   1.079       .  S
N1627      H1647   1.045       .  S
N1627      H1648   1.046       .  S
C1629      C1632   1.402       .  A
C1629      C1636   1.410   1_455  A
N1630      H1645   1.045       .  S
N1630      H1646   1.046   1_455  S
C1632      C1633   1.402       .  A
C1632      H1637   1.084       .  S
C1633      C1634   1.410   1_455  A
C1633      N1638   1.438       .  S
C1634      C1635   1.403       .  A
C1635      C1636   1.410       .  A
C1635      H1639   1.084       .  S
C1636      N1640   1.437       .  S
N1638      H1641   1.046       .  S
N1638      H1642   1.045       .  S
N1640      H1643   1.046       .  S
N1640      H1644   1.046       .  S
C1649      C1650   1.409       .  A
C1649      C1654   1.400       .  A
C1650      C1651   1.408       .  A
C1650      N1655   1.436       .  S
C1651      C1652   1.402       .  A
C1651      H1656   1.084       .  S
C1652      C1657   1.480       .  S
C1652      C1653   1.409       .  A
C1653      C1654   1.405       .  A
C1653      N1658   1.437       .  S
C1654      H1659   1.084       .  S
N1655      H1675   1.045       .  S
N1655      H1676   1.046       .  S
C1657      C1660   1.402       .  A
C1657      C1664   1.408       .  A
N1658      H1673   1.046       .  S
N1658      H1674   1.045       .  S
C1660      C1661   1.408       .  A
C1660      H1665   1.084       .  S
C1661      C1662   1.411       .  A
C1661      N1666   1.437       .  S
C1662      C1663   1.405       .  A
C1663      C1664   1.406       .  A
C1663      H1667   1.084       .  S
C1664      N1668   1.438       .  S
N1666      H1669   1.045       .  S
N1666      H1670   1.046       .  S
N1668      H1671   1.046       .  S
N1668      H1672   1.045       .  S
C1677      C1678   1.420       .  A
C1677      C1682   1.414       .  A
C1678      C1679   1.407       .  A
C1678      N1683   1.438       .  S
C1679      C1680   1.403       .  A
C1679      H1684   1.083       .  S
C1680      C1685   1.489       .  S
C1680      C1681   1.406       .  A
C1681      C1682   1.406       .  A
C1681      N1686   1.438       .  S
C1682      H1687   1.076       .  S
N1683      H1703   1.046       .  S
N1683      H1704   1.045       .  S
C1685      C1688   1.406       .  A
C1685      C1692   1.409       .  A
N1686      H1701   1.046       .  S
N1686      H1702   1.045       .  S
C1688      C1689   1.409       .  A
C1688      H1693   1.084       .  S
C1689      C1690   1.413       .  A
C1689      N1694   1.438       .  S
C1690      C1691   1.405       .  A
C1691      C1692   1.403       .  A
C1691      H1695   1.084       .  S
C1692      N1696   1.438       .  S
N1694      H1697   1.046       .  S
N1694      H1698   1.045       .  S
N1696      H1699   1.046       .  S
N1696      H1700   1.046       .  S
C1705      C1706   1.421       .  A
C1705      C1710   1.411       .  A
C1706      C1707   1.405       .  A
C1706      N1711   1.433       .  S
C1707      C1708   1.398       .  A
C1707      H1712   1.084       .  S
C1708      C1713   1.484       .  S
C1708      C1709   1.407       .  A
C1709      C1710   1.407       .  A
C1709      N1714   1.438       .  S
C1710      H1715   1.075       .  S
N1711      H1731   1.045       .  S
N1711      H1732   1.046       .  S
C1713      C1716   1.400       .  A
C1713      C1720   1.410       .  A
N1714      H1729   1.045       .  S
N1714      H1730   1.046       .  S
C1716      C1717   1.403       .  A
C1716      H1721   1.084       .  S
C1717      C1718   1.414       .  A
C1717      N1722   1.437       .  S
C1718      C1719   1.405       .  A
C1719      C1720   1.410       .  A
C1719      H1723   1.084       .  S
C1720      N1724   1.437       .  S
N1722      H1725   1.046       .  S
N1722      H1726   1.043       .  S
N1724      H1727   1.046       .  S
N1724      H1728   1.045       .  S
C1733      C1734   1.414       .  A
C1733      C1738   1.402       .  A
C1734      C1735   1.407       .  A
C1734      N1739   1.438       .  S
C1735      C1736   1.404       .  A
C1735      H1740   1.083       .  S
C1736      C1741   1.495       .  S
C1736      C1737   1.414       .  A
C1737      C1738   1.410       .  A
C1737      N1742   1.437       .  S
C1738      H1743   1.084       .  S
N1739      H1759   1.046       .  S
N1739      H1760   1.046       .  S
C1741      C1744   1.401       .  A
C1741      C1748   1.413       .  A
N1742      H1757   1.046       .  S
N1742      H1758   1.046       .  S
C1744      C1745   1.406       .  A
C1744      H1749   1.084       .  S
C1745      C1746   1.420       .  A
C1745      N1750   1.438       .  S
C1746      C1747   1.408       .  A
C1747      C1748   1.413       .  A
C1747      H1751   1.083       .  S
C1748      N1752   1.437       .  S
N1750      H1753   1.046       .  S
N1750      H1754   1.046       .  S
N1752      H1755   1.046       .  S
N1752      H1756   1.046       .  S
C1761      C1762   1.425       .  A
C1761      C1766   1.413       .  A
C1762      C1763   1.414       .  A
C1762      N1767   1.438       .  S
C1763      C1764   1.401       .  A
C1763      H1768   1.083       .  S
C1764      C1769   1.491       .  S
C1764      C1765   1.408       .  A
C1765      C1766   1.406       .  A
C1765      N1770   1.439       .  S
C1766      H1771   1.076       .  S
N1767      H1787   1.045       .  S
N1767      H1788   1.045       .  S
C1769      C1772   1.402       .  A
C1769      C1776   1.414       .  A
N1770      H1785   1.045       .  S
N1770      H1786   1.046       .  S
C1772      C1773   1.399       .  A
C1772      H1777   1.084       .  S
C1773      C1774   1.415       .  A
C1773      N1778   1.433       .  S
C1774      C1775   1.403       .  A
C1775      C1776   1.413       .  A
C1775      H1779   1.084       .  S
C1776      N1780   1.437       .  S
N1778      H1781   1.044       .  S
N1778      H1782   1.044       .  S
N1780      H1783   1.046       .  S
N1780      H1784   1.046       .  S
C1789      C1790   1.408       .  A
C1789      C1794   1.402       .  A
C1790      C1791   1.404       .  A
C1790      N1795   1.432       .  S
C1791      C1792   1.401       .  A
C1791      H1796   1.084       .  S
C1792      C1797   1.476       .  S
C1792      C1793   1.409       .  A
C1793      C1794   1.402       .  A
C1793      N1798   1.438       .  S
C1794      H1799   1.084       .  S
N1795      H1815   1.045       .  S
N1795      H1816   1.046       .  S
C1797      C1800   1.400       .  A
C1797      C1804   1.408       .  A
N1798      H1813   1.046       .  S
N1798      H1814   1.046       .  S
C1800      C1801   1.403       .  A
C1800      H1805   1.084       .  S
C1801      C1802   1.412       .  A
C1801      N1806   1.437       .  S
C1802      C1803   1.402       .  A
C1803      C1804   1.406       .  A
C1803      H1807   1.081       .  S
C1804      N1808   1.437       .  S
N1806      H1809   1.046       .  S
N1806      H1810   1.045       .  S
N1808      H1811   1.046       .  S
N1808      H1812   1.046       .  S
C1817      C1818   1.434       .  A
C1817      C1822   1.416       .  A
C1818      C1819   1.396       .  A
C1818      N1823   1.436       .  S
C1819      C1820   1.394       .  A
C1819      H1824   1.085       .  S
C1820      C1825   1.479       .  S
C1820      C1821   1.404       .  A
C1821      C1822   1.410       .  A
C1821      N1826   1.438       .  S
C1822      H1827   1.076       .  S
N1823      H1843   1.041       .  S
N1823      H1844   1.041       .  S
C1825      C1828   1.403       .  A
C1825      C1832   1.408       .  A
N1826      H1841   1.046       .  S
N1826      H1842   1.044       .  S
C1828      C1829   1.407       .  A
C1828      H1833   1.084       .  S
C1829      C1830   1.408       .  A
C1829      N1834   1.431       .  S
C1830      C1831   1.407       .  A
C1831      C1832   1.404       .  A
C1831      H1835   1.084       .  S
C1832      N1836   1.438       .  S
N1834      H1837   1.045       .  S
N1834      H1838   1.045       .  S
N1836      H1839   1.046       .  S
N1836      H1840   1.045       .  S
C1845      C1846   1.411       .  A
C1845      C1850   1.408       .  A
C1846      C1847   1.406       .  A
C1846      N1851   1.432       .  S
C1847      C1848   1.404       .  A
C1847      H1852   1.084       .  S
C1848      C1853   1.492       .  S
C1848      C1849   1.411       .  A
C1849      C1850   1.410       .  A
C1849      N1854   1.438       .  S
C1850      H1855   1.083       .  S
N1851      H1871   1.045       .  S
N1851      H1872   1.046       .  S
C1853      C1856   1.407       .  A
C1853      C1860   1.412       .  A
N1854      H1869   1.046       .  S
N1854      H1870   1.046       .  S
C1856      C1857   1.412       .  A
C1856      H1861   1.083       .  S
C1857      C1858   1.408       .  A
C1857      N1862   1.437       .  S
C1858      C1859   1.401       .  A
C1859      C1860   1.406       .  A
C1859      H1863   1.084       .  S
C1860      N1864   1.438       .  S
N1862      H1865   1.046       .  S
N1862      H1866   1.046       .  S
N1864      H1867   1.046       .  S
N1864      H1868   1.046       .  S
C1873      C1874   1.413       .  A
C1873      C1878   1.405       .  A
C1874      C1875   1.412       .  A
C1874      N1879   1.437       .  S
C1875      C1876   1.408       .  A
C1875      H1880   1.083       .  S
C1876      C1881   1.501       .  S
C1876      C1877   1.415       .  A
C1877      C1878   1.405       .  A
C1877      N1882   1.438       .  S
C1878      H1883   1.083       .  S
N1879      H1899   1.046       .  S
N1879      H1900   1.045       .  S
C1881      C1884   1.403       .  A
C1881      C1888   1.411       .  A
N1882      H1897   1.045       .  S
N1882      H1898   1.046       .  S
C1884      C1885   1.409       .  A
C1884      H1889   1.083       .  S
C1885      C1886   1.424       .  A
C1885      N1890   1.438       .  S
C1886      C1887   1.414       .  A
C1887      C1888   1.410       .  A
C1887      H1891   1.080       .  S
C1888      N1892   1.438       .  S
N1890      H1893   1.046       .  S
N1890      H1894   1.045       .  S
N1892      H1895   1.045       .  S
N1892      H1896   1.046       .  S
C1901      C1902   1.414       .  A
C1901      C1906   1.404       .  A
C1902      C1903   1.410       .  A
C1902      N1907   1.432       .  S
C1903      C1904   1.405       .  A
C1903      H1908   1.083       .  S
C1904      C1909   1.496       .  S
C1904      C1905   1.413       .  A
C1905      C1906   1.406       .  A
C1905      N1910   1.438       .  S
C1906      H1911   1.079       .  S
N1907      H1927   1.046       .  S
N1907      H1928   1.045       .  S
C1909      C1912   1.401       .  A
C1909      C1916   1.413       .  A
N1910      H1925   1.046       .  S
N1910      H1926   1.045       .  S
C1912      C1913   1.402       .  A
C1912      H1917   1.084       .  S
C1913      C1914   1.416       .  A
C1913      N1918   1.430       .  S
C1914      C1915   1.409       .  A
C1915      C1916   1.415       .  A
C1915      H1919   1.083       .  S
C1916      N1920   1.437       .  S
N1918      H1921   1.046       .  S
N1918      H1922   1.046       .  S
N1920      H1923   1.045       .  S
N1920      H1924   1.046       .  S
C1929      C1930   1.413       .  A
C1929      C1934   1.401       .  A
C1930      C1931   1.398       .  A
C1930      N1935   1.439       .  S
C1931      C1932   1.399       .  A
C1931      H1936   1.084       .  S
C1932      C1937   1.480       .  S
C1932      C1933   1.412       .  A
C1933      C1934   1.408       .  A
C1933      N1938   1.437       .  S
C1934      H1939   1.084       .  S
N1935      H1955   1.045       .  S
N1935      H1956   1.046       .  S
C1937      C1940   1.401       .  A
C1937      C1944   1.411       .  A
N1938      H1953   1.046       .  S
N1938      H1954   1.046       .  S
C1940      C1941   1.403       .  A
C1940      H1945   1.084       .  S
C1941      C1942   1.413       .  A
C1941      N1946   1.438       .  S
C1942      C1943   1.402       .  A
C1943      C1944   1.405       .  A
C1943      H1947   1.084       .  S
C1944      N1948   1.438       .  S
N1946      H1949   1.045       .  S
N1946      H1950   1.045       .  S
N1948      H1951   1.046       .  S
N1948      H1952   1.046       .  S
C1957      C1958   1.408       .  A
C1957      C1962   1.404       .  A
C1958      C1959   1.406       .  A
C1958      N1963   1.438       .  S
C1959      C1960   1.406       .  A
C1959      H1964   1.084       .  S
C1960      C1965   1.489       .  S
C1960      C1961   1.411       .  A
C1961      C1962   1.409       .  A
C1961      N1966   1.437       .  S
C1962      H1967   1.082       .  S
N1963      H1983   1.045       .  S
N1963      H1984   1.046       .  S
C1965      C1968   1.407       .  A
C1965      C1972   1.410       .  A
N1966      H1981   1.046       .  S
N1966      H1982   1.046       .  S
C1968      C1969   1.414       .  A
C1968      H1973   1.083       .  S
C1969      C1970   1.413       .  A
C1969      N1974   1.437       .  S
C1970      C1971   1.404       .  A
C1971      C1972   1.401       .  A
C1971      H1975   1.084       .  S
C1972      N1976   1.439       .  S
N1974      H1977   1.046       .  S
N1974      H1978   1.045       .  S
N1976      H1979   1.046       .  S
N1976      H1980   1.046       .  S
C1985      C1986   1.414       .  A
C1985      C1990   1.408       .  A
C1986      C1987   1.411       .  A
C1986      N1991   1.437       .  S
C1987      C1988   1.404       .  A
C1987      H1992   1.084       .  S
C1988      C1993   1.476       .  S
C1988      C1989   1.405       .  A
C1989      C1990   1.400       .  A
C1989      N1994   1.439       .  S
C1990      H1995   1.083       .  S
N1991      H2011   1.045       .  S
N1991      H2012   1.046       .  S
C1993      C1996   1.395       .  A
C1993      C2000   1.408       .  A
N1994      H2009   1.045       .  S
N1994      H2010   1.044       .  S
C1996      C1997   1.398       .  A
C1996      H2001   1.084       .  S
C1997      C1998   1.421       .  A
C1997      N2002   1.434       .  S
C1998      C1999   1.412       .  A
C1999      C2000   1.409       .  A
C1999      H2003   1.076       .  S
C2000      N2004   1.438       .  S
N2002      H2005   1.046       .  S
N2002      H2006   1.046       .  S
N2004      H2007   1.045       .  S
N2004      H2008   1.044       .  S
C2013      C2014   1.416       .  A
C2013      C2018   1.408       .  A
C2014      C2015   1.402       .  A
C2014      N2019   1.438       .  S
C2015      C2016   1.398       .  A
C2015      H2020   1.084       .  S
C2016      C2021   1.473       .  S
C2016      C2017   1.407       .  A
C2017      C2018   1.402       .  A
C2017      N2022   1.438       .  S
C2018      H2023   1.083       .  S
N2019      H2039   1.045       .  S
N2019      H2040   1.046       .  S
C2021      C2024   1.400       .  A
C2021      C2028   1.405       .  A
N2022      H2037   1.046       .  S
N2022      H2038   1.046       .  S
C2024      C2025   1.406       .  A
C2024      H2029   1.084       .  S
C2025      C2026   1.418       .  A
C2025      N2030   1.438       .  S
C2026      C2027   1.406       .  A
C2027      C2028   1.400       .  A
C2027      H2031   1.083       .  S
C2028      N2032   1.438       .  S
N2030      H2033   1.046       .  S
N2030      H2034   1.045       .  S
N2032      H2035   1.045       .  S
N2032      H2036   1.046       .  S
C2041      C2042   1.415       .  A
C2041      C2046   1.407   1_565  A
C2042      C2043   1.402   1_565  A
C2042      N2047   1.433       .  S
C2043      C2044   1.399       .  A
C2043      H2048   1.084       .  S
C2044      C2049   1.483       .  S
C2044      C2045   1.409       .  A
C2045      C2046   1.412       .  A
C2045      N2050   1.437       .  S
C2046      H2051   1.080   1_545  S
N2047      H2067   1.046   1_565  S
N2047      H2068   1.046       .  S
C2049      C2052   1.400       .  A
C2049      C2056   1.409   1_545  A
N2050      H2065   1.046       .  S
N2050      H2066   1.045       .  S
C2052      C2053   1.410       .  A
C2052      H2057   1.084       .  S
C2053      C2054   1.417       .  A
C2053      N2058   1.437       .  S
C2054      C2055   1.407       .  A
C2055      C2056   1.407   1_545  A
C2055      H2059   1.083   1_545  S
C2056      N2060   1.438       .  S
N2058      H2061   1.046       .  S
N2058      H2062   1.045       .  S
N2060      H2063   1.046       .  S
N2060      H2064   1.045       .  S
C2069      C2070   1.419       .  A
C2069      C2074   1.415   1_545  A
C2070      C2071   1.404       .  A
C2070      N2075   1.433       .  S
C2071      C2072   1.399       .  A
C2071      H2076   1.084       .  S
C2072      C2077   1.483       .  S
C2072      C2073   1.405       .  A
C2073      C2074   1.408   1_545  A
C2073      N2078   1.438   1_545  S
C2074      H2079   1.075       .  S
N2075      H2095   1.046       .  S
N2075      H2096   1.045       .  S
C2077      C2080   1.401   1_545  A
C2077      C2084   1.407       .  A
N2078      H2093   1.045       .  S
N2078      H2094   1.046   1_565  S
C2080      C2081   1.408   1_565  A
C2080      H2085   1.084       .  S
C2081      C2082   1.418       .  A
C2081      N2086   1.438   1_545  S
C2082      C2083   1.409       .  A
C2083      C2084   1.407       .  A
C2083      H2087   1.083       .  S
C2084      N2088   1.437       .  S
N2086      H2089   1.046       .  S
N2086      H2090   1.046       .  S
N2088      H2091   1.046       .  S
N2088      H2092   1.046       .  S
C2097      C2098   1.416       .  A
C2097      C2102   1.408       .  A
C2098      C2099   1.405       .  A
C2098      N2103   1.438       .  S
C2099      C2100   1.403       .  A
C2099      H2104   1.084       .  S
C2100      C2105   1.486       .  S
C2100      C2101   1.409       .  A
C2101      C2102   1.405       .  A
C2101      N2106   1.438       .  S
C2102      H2107   1.083       .  S
N2103      H2123   1.046       .  S
N2103      H2124   1.046       .  S
C2105      C2108   1.403       .  A
C2105      C2112   1.410       .  A
N2106      H2121   1.046       .  S
N2106      H2122   1.046       .  S
C2108      C2109   1.406       .  A
C2108      H2113   1.084       .  S
C2109      C2110   1.415       .  A
C2109      N2114   1.438       .  S
C2110      C2111   1.405       .  A
C2111      C2112   1.403       .  A
C2111      H2115   1.084       .  S
C2112      N2116   1.438       .  S
N2114      H2117   1.046       .  S
N2114      H2118   1.045       .  S
N2116      H2119   1.046       .  S
N2116      H2120   1.045       .  S
C2125      C2126   1.415       .  A
C2125      C2130   1.406       .  A
C2126      C2127   1.408       .  A
C2126      N2131   1.431       .  S
C2127      C2128   1.402       .  A
C2127      H2132   1.084       .  S
C2128      C2133   1.487       .  S
C2128      C2129   1.410       .  A
C2129      C2130   1.403       .  A
C2129      N2134   1.438       .  S
C2130      H2135   1.083       .  S
N2131      H2151   1.045       .  S
N2131      H2152   1.046       .  S
C2133      C2136   1.400       .  A
C2133      C2140   1.409       .  A
N2134      H2149   1.046       .  S
N2134      H2150   1.045       .  S
C2136      C2137   1.404       .  A
C2136      H2141   1.084       .  S
C2137      C2138   1.418       .  A
C2137      N2142   1.438       .  S
C2138      C2139   1.410       .  A
C2139      C2140   1.411       .  A
C2139      H2143   1.083       .  S
C2140      N2144   1.437       .  S
N2142      H2145   1.046       .  S
N2142      H2146   1.046       .  S
N2144      H2147   1.045   1_455  S
N2144      H2148   1.046       .  S
C2153      C2154   1.425       .  A
C2153      C2158   1.413       .  A
C2154      C2155   1.410       .  A
C2154      N2159   1.439       .  S
C2155      C2156   1.399       .  A
C2155      H2160   1.084       .  S
C2156      C2161   1.481       .  S
C2156      C2157   1.404       .  A
C2157      C2158   1.403       .  A
C2157      N2162   1.439       .  S
C2158      H2163   1.075       .  S
N2159      H2179   1.044       .  S
N2159      H2180   1.046       .  S
C2161      C2164   1.399       .  A
C2161      C2168   1.409       .  A
N2162      H2177   1.046       .  S
N2162      H2178   1.046       .  S
C2164      C2165   1.405       .  A
C2164      H2169   1.084       .  S
C2165      C2166   1.418       .  A
C2165      N2170   1.438   1_455  S
C2166      C2167   1.407       .  A
C2167      C2168   1.409       .  A
C2167      H2171   1.083       .  S
C2168      N2172   1.438       .  S
N2170      H2173   1.046       .  S
N2170      H2174   1.046       .  S
N2172      H2175   1.046       .  S
N2172      H2176   1.045       .  S
C2181      C2182   1.415       .  A
C2181      C2186   1.406       .  A
C2182      C2183   1.408       .  A
C2182      N2187   1.437       .  S
C2183      C2184   1.402       .  A
C2183      H2188   1.084       .  S
C2184      C2189   1.479       .  S
C2184      C2185   1.407       .  A
C2185      C2186   1.402       .  A
C2185      N2190   1.438       .  S
C2186      H2191   1.084       .  S
N2187      H2207   1.046       .  S
N2187      H2208   1.046       .  S
C2189      C2192   1.402       .  A
C2189      C2196   1.408       .  A
N2190      H2205   1.046       .  S
N2190      H2206   1.046       .  S
C2192      C2193   1.407       .  A
C2192      H2197   1.084       .  S
C2193      C2194   1.415       .  A
C2193      N2198   1.438       .  S
C2194      C2195   1.405       .  A
C2195      C2196   1.403       .  A
C2195      H2199   1.084       .  S
C2196      N2200   1.438       .  S
N2198      H2201   1.046       .  S
N2198      H2202   1.046       .  S
N2200      H2203   1.046       .  S
N2200      H2204   1.046       .  S
C2209      C2210   1.407       .  A
C2209      C2214   1.406       .  A
C2210      C2211   1.408       .  A
C2210      N2215   1.432       .  S
C2211      C2212   1.406       .  A
C2211      H2216   1.084       .  S
C2212      C2217   1.487       .  S
C2212      C2213   1.410       .  A
C2213      C2214   1.405       .  A
C2213      N2218   1.438       .  S
C2214      H2219   1.084       .  S
N2215      H2235   1.045       .  S
N2215      H2236   1.046       .  S
C2217      C2220   1.405       .  A
C2217      C2224   1.407       .  A
N2218      H2233   1.046       .  S
N2218      H2234   1.046       .  S
C2220      C2221   1.412       .  A
C2220      H2225   1.084       .  S
C2221      C2222   1.417       .  A
C2221      N2226   1.437       .  S
C2222      C2223   1.409       .  A
C2223      C2224   1.404       .  A
C2223      H2227   1.083       .  S
C2224      N2228   1.438       .  S
N2226      H2229   1.046       .  S
N2226      H2230   1.046       .  S
N2228      H2231   1.045       .  S
N2228      H2232   1.046       .  S
C2237      C2238   1.416       .  A
C2237      C2242   1.417       .  A
C2238      C2239   1.409       .  A
C2238      N2243   1.432       .  S
C2239      C2240   1.405       .  A
C2239      H2244   1.083       .  S
C2240      C2245   1.493       .  S
C2240      C2241   1.406       .  A
C2241      C2242   1.405       .  A
C2241      N2246   1.439       .  S
C2242      H2247   1.073       .  S
N2243      H2263   1.046       .  S
N2243      H2264   1.045       .  S
C2245      C2248   1.406       .  A
C2245      C2252   1.410       .  A
N2246      H2261   1.045       .  S
N2246      H2262   1.045       .  S
C2248      C2249   1.408       .  A
C2248      H2253   1.084       .  S
C2249      C2250   1.413       .  A
C2249      N2254   1.438       .  S
C2250      C2251   1.407       .  A
C2251      C2252   1.408       .  A
C2251      H2255   1.084       .  S
C2252      N2256   1.437       .  S
N2254      H2257   1.046       .  S
N2254      H2258   1.046       .  S
N2256      H2259   1.046       .  S
N2256      H2260   1.046       .  S
C2265      C2266   1.415       .  A
C2265      C2270   1.405       .  A
C2266      C2267   1.408       .  A
C2266      N2271   1.438       .  S
C2267      C2268   1.401       .  A
C2267      H2272   1.084       .  S
C2268      C2273   1.478       .  S
C2268      C2269   1.407       .  A
C2269      C2270   1.404       .  A
C2269      N2274   1.438       .  S
C2270      H2275   1.084       .  S
N2271      H2291   1.046       .  S
N2271      H2292   1.046       .  S
C2273      C2276   1.401       .  A
C2273      C2280   1.407       .  A
N2274      H2289   1.046       .  S
N2274      H2290   1.045       .  S
C2276      C2277   1.408       .  A
C2276      H2281   1.084       .  S
C2277      C2278   1.415       .  A
C2277      N2282   1.438       .  S
C2278      C2279   1.405       .  A
C2279      C2280   1.405       .  A
C2279      H2283   1.084       .  S
C2280      N2284   1.438       .  S
N2282      H2285   1.046       .  S
N2282      H2286   1.045       .  S
N2284      H2287   1.045       .  S
N2284      H2288   1.045       .  S
C2293      C2294   1.416       .  A
C2293      C2298   1.409       .  A
C2294      C2295   1.407       .  A
C2294      N2299   1.437       .  S
C2295      C2296   1.400       .  A
C2295      H2300   1.084       .  S
C2296      C2301   1.479       .  S
C2296      C2297   1.407       .  A
C2297      C2298   1.406       .  A
C2297      N2302   1.438       .  S
C2298      H2303   1.083       .  S
N2299      H2319   1.046       .  S
N2299      H2320   1.046       .  S
C2301      C2304   1.398       .  A
C2301      C2308   1.405       .  A
N2302      H2317   1.046       .  S
N2302      H2318   1.045       .  S
C2304      C2305   1.406       .  A
C2304      H2309   1.084       .  S
C2305      C2306   1.419       .  A
C2305      N2310   1.433       .  S
C2306      C2307   1.415   1_545  A
C2307      C2308   1.405   1_565  A
C2307      H2311   1.073       .  S
C2308      N2312   1.439   1_545  S
N2310      H2313   1.046       .  S
N2310      H2314   1.046       .  S
N2312      H2315   1.045       .  S
N2312      H2316   1.045   1_565  S
C2321      C2322   1.418       .  A
C2321      C2326   1.406       .  A
C2322      C2323   1.409       .  A
C2322      N2327   1.438   1_545  S
C2323      C2324   1.402       .  A
C2323      H2328   1.084   1_545  S
C2324      C2329   1.485       .  S
C2324      C2325   1.407       .  A
C2325      C2326   1.405       .  A
C2325      N2330   1.437       .  S
C2326      H2331   1.083       .  S
N2327      H2347   1.045       .  S
N2327      H2348   1.046       .  S
C2329      C2332   1.400       .  A
C2329      C2336   1.405       .  A
N2330      H2345   1.046       .  S
N2330      H2346   1.046       .  S
C2332      C2333   1.404       .  A
C2332      H2337   1.084       .  S
C2333      C2334   1.418       .  A
C2333      N2338   1.433       .  S
C2334      C2335   1.416       .  A
C2335      C2336   1.408       .  A
C2335      H2339   1.074       .  S
C2336      N2340   1.438       .  S
N2338      H2341   1.046   1_545  S
N2338      H2342   1.045       .  S
N2340      H2343   1.045       .  S
N2340      H2344   1.046       .  S
C2349      C2350   1.416       .  A
C2349      C2354   1.407       .  A
C2350      C2351   1.402       .  A
C2350      N2355   1.438       .  S
C2351      C2352   1.400       .  A
C2351      H2356   1.084       .  S
C2352      C2357   1.476       .  S
C2352      C2353   1.407       .  A
C2353      C2354   1.404       .  A
C2353      N2358   1.438       .  S
C2354      H2359   1.083       .  S
N2355      H2375   1.046       .  S
N2355      H2376   1.046       .  S
C2357      C2360   1.400       .  A
C2357      C2364   1.408       .  A
N2358      H2373   1.046       .  S
N2358      H2374   1.046       .  S
C2360      C2361   1.404       .  A
C2360      H2365   1.084       .  S
C2361      C2362   1.414       .  A
C2361      N2366   1.437   1_565  S
C2362      C2363   1.406       .  A
C2363      C2364   1.402       .  A
C2363      H2367   1.083       .  S
C2364      N2368   1.438       .  S
N2366      H2369   1.046   1_545  S
N2366      H2370   1.046       .  S
N2368      H2371   1.046       .  S
N2368      H2372   1.046       .  S
C2377      C2378   1.415       .  A
C2377      C2382   1.406       .  A
C2378      C2379   1.401       .  A
C2378      N2383   1.438       .  S
C2379      C2380   1.399       .  A
C2379      H2384   1.084       .  S
C2380      C2385   1.479       .  S
C2380      C2381   1.409       .  A
C2381      C2382   1.407       .  A
C2381      N2386   1.438       .  S
C2382      H2387   1.083       .  S
N2383      H2403   1.046       .  S
N2383      H2404   1.046       .  S
C2385      C2388   1.400       .  A
C2385      C2392   1.409       .  A
N2386      H2401   1.046       .  S
N2386      H2402   1.046       .  S
C2388      C2389   1.405       .  A
C2388      H2393   1.084       .  S
C2389      C2390   1.417       .  A
C2389      N2394   1.438       .  S
C2390      C2391   1.406       .  A
C2391      C2392   1.402       .  A
C2391      H2395   1.083       .  S
C2392      N2396   1.438       .  S
N2394      H2397   1.046       .  S
N2394      H2398   1.045       .  S
N2396      H2399   1.046       .  S
N2396      H2400   1.045       .  S
C2405      C2406   1.417       .  A
C2405      C2410   1.407   1_455  A
C2406      C2407   1.408       .  A
C2406      N2411   1.437       .  S
C2407      C2408   1.401       .  A
C2407      H2412   1.084       .  S
C2408      C2413   1.483       .  S
C2408      C2409   1.408       .  A
C2409      C2410   1.406   1_455  A
C2409      N2414   1.438   1_455  S
C2410      H2415   1.083       .  S
N2411      H2431   1.046       .  S
N2411      H2432   1.046       .  S
C2413      C2416   1.399       .  A
C2413      C2420   1.407       .  A
N2414      H2429   1.046       .  S
N2414      H2430   1.045   1_655  S
C2416      C2417   1.405       .  A
C2416      H2421   1.084   1_455  S
C2417      C2418   1.419       .  A
C2417      N2422   1.432       .  S
C2418      C2419   1.413       .  A
C2419      C2420   1.406       .  A
C2419      H2423   1.079       .  S
C2420      N2424   1.439       .  S
N2422      H2425   1.046   1_455  S
N2422      H2426   1.045       .  S
N2424      H2427   1.046       .  S
N2424      H2428   1.045       .  S
C2433      C2434   1.415       .  A
C2433      C2438   1.406       .  A
C2434      C2435   1.406       .  A
C2434      N2439   1.438   1_455  S
C2435      C2436   1.400       .  A
C2435      H2440   1.084       .  S
C2436      C2441   1.481       .  S
C2436      C2437   1.408       .  A
C2437      C2438   1.407       .  A
C2437      N2442   1.438       .  S
C2438      H2443   1.083       .  S
N2439      H2459   1.046       .  S
N2439      H2460   1.046       .  S
C2441      C2444   1.398       .  A
C2441      C2448   1.405       .  A
N2442      H2457   1.046       .  S
N2442      H2458   1.045       .  S
C2444      C2445   1.406       .  A
C2444      H2449   1.084       .  S
C2445      C2446   1.420       .  A
C2445      N2450   1.433       .  S
C2446      C2447   1.414       .  A
C2447      C2448   1.405       .  A
C2447      H2451   1.074       .  S
C2448      N2452   1.439       .  S
N2450      H2453   1.045       .  S
N2450      H2454   1.046       .  S
N2452      H2455   1.045       .  S
N2452      H2456   1.046       .  S
