geometry optimzed in LAMMPS
_audit_creation_date              2020-11-30 
_audit_creation_method            'lammps2cif' 
_symmetry_space_group_name_H-M    'P1' 
_symmetry_Int_Tables_number       1 
_symmetry_cell_setting            triclinic 
loop_ 
_symmetry_equiv_pos_as_xyz 
  x,y,z 
_cell_length_a                    70.09166187 
_cell_length_b                    22.799541961041943 
_cell_length_c                    24.406669646537747 
_cell_angle_alpha                 90.13106884835739 
_cell_angle_beta                  90.45371868852804 
_cell_angle_gamma                 89.8217282037657 
loop_ 
_atom_site_label 
_atom_site_type_symbol 
_atom_site_fract_x 
_atom_site_fract_y 
_atom_site_fract_z 
_atom_site_charge 
O1          O  0.69187509  0.68952738  0.65855281    -0.80100
O2          O  0.60400633  0.67347994  0.70195426    -0.64700
O3          O  0.65260053  0.70772333  0.64020254    -1.11300
C4          C  0.65525083  0.87017761  0.75636595     1.06800
O5          O  0.59591179  0.76459158  0.72484911    -0.78000
O6          O  0.61763513  0.82768238  0.65692537    -0.65500
Ni7        Ni  0.67071212  0.64642907  0.62770929     1.34900
C8          C  0.63188185  0.84088766  0.62778030     0.85600
O9          O  0.62261426  0.63050165  0.61764798    -0.78500
O10         O  0.65158167  0.59716600  0.59457671    -0.88800
C11         C  0.59165883  0.71140346  0.71579119     0.85100
O12         O  0.66793422  0.60726381  0.69585782    -0.67000
O13         O  0.63751436  0.87094448  0.74535041    -0.86300
C14         C  0.65370238  0.59963575  0.72677718     0.86000
C15         C  0.63340461  0.59453631  0.59251208     1.07500
H16         H  0.63794611  0.73090552  0.76028930     0.39300
O17         O  0.63554644  0.74827216  0.72489155    -1.08900
O18         O  0.64893959  0.82672357  0.64124198    -0.65600
Ni19       Ni  0.65942173  0.76774051  0.69126696     1.26300
O20         O  0.63801768  0.62758530  0.72068429    -0.65800
O21         O  0.66582715  0.82673948  0.74453382    -0.78100
C22         C  0.69586101  0.74309378  0.65045084     0.85400
O23         O  0.68322222  0.78250054  0.65616671    -0.65300
Ni24       Ni  0.61807779  0.81257610  0.73321222     1.27400
Ni25       Ni  0.62862089  0.68862700  0.67180694     1.26100
H26         H  0.65004883  0.72528852  0.60494599     0.39900
C27         C  0.55307794  0.19463267  0.33676506     0.87300
C28         C  0.55876181  0.24659906  0.37361995    -0.52900
C29         C  0.57794878  0.25220905  0.38216292     0.10200
C30         C  0.58987326  0.20501203  0.35283132     0.21200
C31         C  0.56461038  0.20423483  0.28384133    -0.53600
C32         C  0.58384998  0.20970533  0.29208577     0.10400
C33         C  0.56252147  0.14083240  0.36346607    -0.53200
C34         C  0.58170236  0.14620291  0.37244609     0.10900
H35         H  0.54842067  0.27703223  0.39065362     0.15400
H36         H  0.60543553  0.20918703  0.36017462     0.01200
H37         H  0.55858678  0.20614961  0.24301097     0.15700
H38         H  0.55454730  0.10226674  0.37560180     0.15500
C39         C  0.67567437  0.24442817  0.97159664    -0.01700
O40         O  0.81032850  0.35825286  0.15600093    -0.80100
O41         O  0.89790604  0.37389445  0.20804952    -0.64700
O42         O  0.84943029  0.34444836  0.14049139    -1.11300
C43         C  0.84693107  0.19131018  0.27468984     1.06800
O44         O  0.90385658  0.27906076  0.20585075    -0.78000
O45         O  0.87921746  0.19123529  0.18608469    -0.65500
Ni46       Ni  0.83124792  0.40497321  0.12942785     1.34900
C47         C  0.86822750  0.19100609  0.14450917     0.85600
O48         O  0.87963558  0.42027648  0.12090578    -0.78500
O49         O  0.85053635  0.45608472  0.10008524    -0.88800
C50         C  0.90966783  0.33145826  0.21118780     0.85100
O51         O  0.83362546  0.44070271  0.19976049    -0.67000
O52         O  0.86403705  0.20570105  0.28657118    -0.86300
C53         C  0.84835458  0.45136686  0.22862995     0.86000
C54         C  0.86874090  0.45736205  0.09692593     1.07500
H55         H  0.86180297  0.32311088  0.25923670     0.39300
O56         O  0.86554497  0.30387852  0.22566394    -1.08900
O57         O  0.85487932  0.22809455  0.13759329    -0.65600
Ni58       Ni  0.84275960  0.28130796  0.18807823     1.26300
O59         O  0.86421655  0.42494016  0.22170086    -0.65800
O60         O  0.83712014  0.21610297  0.23660796    -0.78100
C61         C  0.80682290  0.30517542  0.14308227     0.85400
O62         O  0.81958304  0.26589982  0.14887973    -0.65300
Ni63       Ni  0.88326341  0.24451496  0.24557129     1.27400
Ni64       Ni  0.87328062  0.36248976  0.17432068     1.26100
H65         H  0.85213168  0.32879780  0.10454594     0.39900
C66         C  0.94850469  0.85139131  0.83839582     0.87300
C67         C  0.94351667  0.79528410  0.86977478    -0.52900
C68         C  0.92455175  0.78875853  0.87936707     0.10200
C69         C  0.91209356  0.83928778  0.85765520     0.21200
C70         C  0.93598516  0.84968840  0.78665722    -0.53600
C71         C  0.91686387  0.84388245  0.79624241     0.10400
C72         C  0.93986018  0.90085201  0.87370891    -0.53200
C73         C  0.92086550  0.89435122  0.88390042     0.10900
H74         H  0.95409171  0.76352407  0.88356769     0.15400
H75         H  0.89673678  0.83399569  0.86704692     0.01200
H76         H  0.94205059  0.85097601  0.74593766     0.15700
H77         H  0.94767976  0.93727872  0.89109085     0.15500
C78         C  0.82479822  0.80745217  0.47216079    -0.01700
O79         O  0.30796900  0.17545980  0.36615904    -0.80100
O80         O  0.39718028  0.15156028  0.33267740    -0.64700
O81         O  0.34700232  0.18470159  0.38644765    -1.11300
C82         C  0.34958571  0.33270585  0.24640820     1.06800
O83         O  0.40212998  0.24632038  0.33883211    -0.78000
O84         O  0.37793728  0.33718981  0.34200515    -0.65500
Ni85       Ni  0.32835041  0.12526316  0.39259804     1.34900
C86         C  0.36671849  0.33804995  0.38248531     0.85600
O87         O  0.37615793  0.10752498  0.41459312    -0.78500
O88         O  0.34679566  0.06950436  0.42190327    -0.88800
C89         C  0.40864619  0.19485595  0.33307649     0.85100
O90         O  0.33142112  0.09595642  0.32032388    -0.67000
O91         O  0.36658353  0.31459613  0.23867705    -0.86300
C92         C  0.34662097  0.08066860  0.29632668     0.86000
C93         C  0.36474849  0.06850083  0.43201465     1.07500
H94         H  0.36240219  0.20200923  0.27072864     0.39300
O95         O  0.36546502  0.22171542  0.30476364    -1.08900
O96         O  0.35369554  0.30018430  0.38864340    -0.65600
Ni97       Ni  0.34222646  0.24760648  0.33600515     1.26300
O98         O  0.36301627  0.10096936  0.30990382    -0.65800
O99         O  0.33877658  0.31217133  0.28419773    -0.78100
C100        C  0.30519181  0.22992228  0.37513225     0.85400
O101        O  0.31847532  0.26715935  0.36928764    -0.65300
Ni102      Ni  0.38398643  0.27891321  0.28861926     1.27400
Ni103      Ni  0.37152141  0.16406910  0.35891963     1.26100
H104        H  0.34880424  0.20059984  0.42285247     0.39900
C105        C  0.44818426  0.67802587  0.69145153     0.87300
C106        C  0.44163886  0.73339615  0.66058470    -0.52900
C107        C  0.42245525  0.73608048  0.65056860     0.10200
C108        C  0.41140182  0.68333362  0.67291028     0.21200
C109        C  0.43597910  0.67790698  0.74373439    -0.53600
C110        C  0.41680515  0.68035295  0.73395974     0.10400
C111        C  0.44026606  0.62645138  0.65780042    -0.53200
C112        C  0.42108205  0.62941782  0.64699751     0.10900
H113        H  0.45144179  0.76702330  0.64687111     0.15400
H114        H  0.39579545  0.68629251  0.66547306     0.01200
H115        H  0.44144182  0.67683848  0.78523278     0.15700
H116        H  0.44926121  0.59052526  0.64424567     0.15500
C117        C  0.32572094  0.72145391  0.05252388    -0.01700
O118        O  0.18987324  0.84286051  0.86919750    -0.80100
O119        O  0.10320522  0.86067527  0.82503239    -0.64700
O120        O  0.15162447  0.83202817  0.89186292    -1.11300
C121        C  0.15357185  0.67378054  0.76251401     1.06800
O122        O  0.09711547  0.76595482  0.83072966    -0.78000
O123        O  0.12146765  0.67750672  0.85098764    -0.65500
Ni124      Ni  0.17020167  0.89130944  0.89995811     1.34900
C125        C  0.13235915  0.67808762  0.89275100     0.85600
O126        O  0.12222168  0.91148535  0.90967631    -0.78500
O127        O  0.15170598  0.94299147  0.93246327    -0.88800
C128        C  0.09138295  0.81854810  0.82527089     0.85100
O129        O  0.16700224  0.92770544  0.83043223    -0.67000
O130        O  0.13646493  0.68813273  0.74995533    -0.86300
C131        C  0.15258980  0.93504306  0.79947875     0.86000
C132        C  0.13350880  0.94638763  0.93524565     1.07500
H133        H  0.13898322  0.80558255  0.77464710     0.39300
O134        O  0.13516380  0.78824634  0.80891306    -1.08900
O135        O  0.14562579  0.71547707  0.89925351    -0.65600
Ni136      Ni  0.15788160  0.76620030  0.84684731     1.26300
O137        O  0.13684875  0.90852892  0.80679227    -0.65800
O138        O  0.16322981  0.69895817  0.80060603    -0.78100
C139        C  0.19383278  0.79193643  0.88701334     0.85400
O140        O  0.18119380  0.75208563  0.88588032    -0.65300
Ni141      Ni  0.11734981  0.72915957  0.79067471     1.27400
Ni142      Ni  0.12787603  0.85005715  0.85807868     1.26100
H143        H  0.14895715  0.81827496  0.92842015     0.39900
C144        C  0.05345978  0.33734703  0.20103242     0.87300
C145        C  0.05951826  0.28292953  0.16759235    -0.52900
C146        C  0.07868766  0.27894453  0.15877270     0.10200
C147        C  0.09022258  0.32928105  0.18432120     0.21200
C148        C  0.06548371  0.33200794  0.25393319    -0.53600
C149        C  0.08466228  0.32848272  0.24516389     0.10400
C150        C  0.06195887  0.38939155  0.16998584    -0.53200
C151        C  0.08113365  0.38522584  0.16012595     0.10900
H152        H  0.04962283  0.24987821  0.15269716     0.15400
H153        H  0.10575238  0.32482385  0.17705122     0.01200
H154        H  0.05964647  0.32874937  0.29475787     0.15700
H155        H  0.05322526  0.42566896  0.15547220     0.15500
C156        C  0.17844812  0.29340386  0.56332840    -0.01700
C157        C  0.14991581  0.25833078  0.43064770    -0.27400
C158        C  0.13911746  0.30927049  0.42260325     0.06200
C159        C  0.14176216  0.35706459  0.45800151     0.25900
C160        C  0.15464769  0.35330561  0.50171549    -0.11900
C161        C  0.16472329  0.30072745  0.51302978    -0.25800
C162        C  0.16287184  0.25442261  0.47426130     0.36700
C163        C  0.12543839  0.31294632  0.37643454     0.06300
F164        F  0.13165573  0.40738907  0.45074675    -0.19600
H165        H  0.15677869  0.39266275  0.52551831     0.16100
F166        F  0.17312618  0.20414137  0.47976555    -0.23300
H167        H  0.14840305  0.22157375  0.40275600     0.17900
C168        C  0.12723210  0.35707188  0.33680736     0.25900
C169        C  0.11393071  0.36150292  0.29419920    -0.11800
C170        C  0.09871350  0.32206627  0.29020849    -0.25900
C171        C  0.09696102  0.27747818  0.32957016     0.36800
C172        C  0.11033824  0.27282330  0.37222281    -0.27500
F173        F  0.14191977  0.39568170  0.33920841    -0.19600
H174        H  0.11522200  0.39686584  0.26521659     0.16100
F175        F  0.08247246  0.23820794  0.32642540    -0.23300
H176        H  0.10878055  0.23848521  0.40245429     0.17900
C177        C  0.16036419  0.55434574  0.65670381    -0.27400
C178        C  0.17087846  0.51262514  0.68651064     0.06200
C179        C  0.17786482  0.52748558  0.73885843     0.25900
C180        C  0.17338804  0.58216536  0.76207313    -0.11900
C181        C  0.16183981  0.62259149  0.73346608    -0.25800
C182        C  0.15586510  0.60875465  0.67977502     0.36700
C183        C  0.17344425  0.45297997  0.66332680     0.06300
F184        F  0.18792128  0.48778905  0.76883013    -0.19600
H185        H  0.17794989  0.59138110  0.80371262     0.16100
F186        F  0.14513508  0.64713407  0.65018492    -0.23300
H187        H  0.15514682  0.54397489  0.61592291     0.17900
C188        C  0.15750514  0.41807020  0.65126785     0.25900
C189        C  0.15969975  0.36446581  0.62407175    -0.11800
C190        C  0.17760614  0.34672241  0.60352640    -0.25900
C191        C  0.19384379  0.37865774  0.62223742     0.36800
C192        C  0.19164073  0.43143061  0.65115412    -0.27500
F193        F  0.13970916  0.43672030  0.66444144    -0.19600
H194        H  0.14705028  0.33912095  0.61455892     0.16100
F195        F  0.21190432  0.35912297  0.61417458    -0.23300
H196        H  0.20417514  0.45643363  0.66261699     0.17900
C197        C  0.17974070  0.16957185  0.67239162    -0.27400
C198        C  0.16381012  0.13510294  0.65845037     0.06200
C199        C  0.15145869  0.15555473  0.61708285     0.25900
C200        C  0.15550977  0.20740619  0.58896957    -0.11900
C201        C  0.17267385  0.23890566  0.59832475    -0.25800
C202        C  0.18408252  0.22062366  0.64326115     0.36700
C203        C  0.16018788  0.07886754  0.68802594     0.06300
F204        F  0.13568417  0.12472420  0.60237743    -0.19600
H205        H  0.14496079  0.22192714  0.55951781     0.16100
F206        F  0.19992828  0.25099038  0.65799018    -0.23300
H207        H  0.18900706  0.15682445  0.70604125     0.17900
C208        C  0.17535594  0.04031546  0.70038728     0.25900
C209        C  0.17246257  0.99158345  0.73389293    -0.11800
C210        C  0.15434135  0.97908279  0.75504203    -0.25900
C211        C  0.13881079  0.01464747  0.73907384     0.36800
C212        C  0.14178845  0.06439593  0.70646174    -0.27500
F213        F  0.19313911  0.05022085  0.68089624    -0.19600
H214        H  0.18461937  0.96441168  0.74473163     0.16100
F215        F  0.12102162  0.00403291  0.75820879    -0.23300
H216        H  0.12980575  0.09311987  0.69800800     0.17900
C217        C  0.11925752  0.48215983  0.09486196    -0.27400
C218        C  0.10903238  0.50634137  0.05073310     0.06200
C219        C  0.08995550  0.48968170  0.04230248     0.25900
C220        C  0.08118966  0.45062941  0.07795601    -0.11900
C221        C  0.09119315  0.42668927  0.12285455    -0.25800
C222        C  0.11055878  0.44198196  0.13017756     0.36700
C223        C  0.11812354  0.54751294  0.01203382     0.06300
F224        F  0.07967797  0.51170295  0.99963960    -0.19600
H225        H  0.06653944  0.43841552  0.06961494     0.16100
F226        F  0.12116786  0.41895359  0.17140947    -0.23300
H227        H  0.13408484  0.49367132  0.10140406     0.17900
C228        C  0.12562980  0.60172211  0.02951138     0.25900
C229        C  0.13120814  0.64373960  0.99077322    -0.11800
C230        C  0.12925440  0.63206823  0.93440701    -0.25900
C231        C  0.12304850  0.57617741  0.91749007     0.36800
C232        C  0.11760284  0.53453136  0.95592577    -0.27500
F233        F  0.12644897  0.61534017  0.08364819    -0.19600
H234        H  0.13611515  0.68627067  0.00471993     0.16100
F235        F  0.12190324  0.56205454  0.86349038    -0.23300
H236        H  0.11229830  0.49252200  0.94174202     0.17900
C237        C  0.09868458  0.04711638  0.00935029    -0.27400
C238        C  0.11110488  0.08847516  0.03305654     0.06200
C239        C  0.13085778  0.08146655  0.02602927     0.25900
C240        C  0.13789983  0.03482580  0.99493807    -0.11900
C241        C  0.12547948  0.99411490  0.96984467    -0.25800
C242        C  0.10570391  0.00055852  0.97791857     0.36700
C243        C  0.10328302  0.13874825  0.06458670     0.06300
F244        F  0.14337602  0.12072134  0.04760938    -0.19600
H245        H  0.15319628  0.03132714  0.98987305     0.16100
F246        F  0.09307320  0.96220348  0.95554680    -0.23300
H247        H  0.08343090  0.05081302  0.01527568     0.17900
C248        C  0.08789259  0.17183209  0.04363530     0.25900
C249        C  0.07992431  0.21708590  0.07466212    -0.11800
C250        C  0.08738488  0.23105218  0.12651640    -0.25900
C251        C  0.10308864  0.19932966  0.14699195     0.36800
C252        C  0.11086305  0.15326140  0.11638545    -0.27500
F253        F  0.08076605  0.16110924  0.99272452    -0.19600
H254        H  0.06804285  0.24188053  0.05786967     0.16100
F255        F  0.11041943  0.21131230  0.19742037    -0.23300
H256        H  0.12254780  0.12806566  0.13373116     0.17900
C257        C  0.24617263  0.80982014  0.92323156    -0.27400
C258        C  0.24933597  0.76185857  0.95804380     0.06200
C259        C  0.23425391  0.72306935  0.96851079     0.25900
C260        C  0.21638287  0.73193354  0.94386328    -0.11900
C261        C  0.21317281  0.78013396  0.90917047    -0.25800
C262        C  0.22831243  0.81917151  0.89913102     0.36700
C263        C  0.26856260  0.75201450  0.98187478     0.06300
F264        F  0.23687799  0.67617118  0.00189495    -0.19600
H265        H  0.20494167  0.70169471  0.95282192     0.16100
F266        F  0.22595055  0.86647097  0.86601935    -0.23300
H267        H  0.25757455  0.84047693  0.91503251     0.17900
C268        C  0.28453350  0.74971300  0.94781421     0.25900
C269        C  0.30269722  0.74100583  0.96996049    -0.11800
C270        C  0.30556819  0.73218118  0.02691423    -0.25900
C271        C  0.28937137  0.73758646  0.06107108     0.36800
C272        C  0.27114224  0.74646314  0.03863223    -0.27500
F273        F  0.28256919  0.75524245  0.89266018    -0.19600
H274        H  0.31439266  0.74253589  0.94155032     0.16100
F275        F  0.29110321  0.73205400  0.11624262    -0.23300
H276        H  0.25900747  0.74944943  0.06571090     0.17900
C277        C  0.39199215  0.64591039  0.86719296    -0.27400
C278        C  0.37810249  0.69013290  0.86868486     0.06200
C279        C  0.37615702  0.72882623  0.82429173     0.25900
C280        C  0.38835783  0.72409023  0.77941661    -0.11900
C281        C  0.40277568  0.68130198  0.77883919    -0.25800
C282        C  0.40432650  0.64155219  0.82270831     0.36700
C283        C  0.36585618  0.69635250  0.91705261     0.06300
F284        F  0.36255550  0.77133046  0.82468785    -0.19600
H285        H  0.38697217  0.75503913  0.74599278     0.16100
F286        F  0.41772702  0.59843445  0.82242600    -0.23300
H287        H  0.39347218  0.61546204  0.90098498     0.17900
C288        C  0.35098317  0.65703545  0.92608355     0.25900
C289        C  0.33879445  0.66540657  0.97030719    -0.11800
C290        C  0.34101350  0.71336975  0.00694286    -0.25900
C291        C  0.35747367  0.74887916  0.00035930     0.36800
C292        C  0.36926716  0.74134402  0.95486892    -0.27500
F293        F  0.34794245  0.61143369  0.89126501    -0.19600
H294        H  0.32699694  0.63532944  0.97490522     0.16100
F295        F  0.36295031  0.78933415  0.03798316    -0.23300
H296        H  0.38136469  0.77019847  0.94956759     0.17900
C297        C  0.22244062  0.32883920  0.47455257    -0.27400
C298        C  0.23300815  0.27681722  0.47668356     0.06200
C299        C  0.22650752  0.23051527  0.50938888     0.25900
C300        C  0.20934630  0.23543531  0.53789132    -0.11900
C301        C  0.19837580  0.28755631  0.53605617    -0.25800
C302        C  0.20535385  0.33422276  0.50330039     0.36700
C303        C  0.25065429  0.27031213  0.44417219     0.06300
F304        F  0.23681226  0.18019313  0.51376951    -0.19600
H305        H  0.20459895  0.19713484  0.55967386     0.16100
F306        F  0.19550787  0.38534355  0.49869386    -0.23300
H307        H  0.22723073  0.36503407  0.44954040     0.17900
C308        C  0.25269742  0.22314335  0.40756923     0.25900
C309        C  0.27021701  0.21236332  0.38261935    -0.11800
C310        C  0.28596991  0.24889926  0.39296649    -0.25900
C311        C  0.28343831  0.29910544  0.42593688     0.36800
C312        C  0.26589160  0.30949906  0.45143065    -0.27500
F313        F  0.23782812  0.18673174  0.39689592    -0.19600
H314        H  0.27162432  0.17416165  0.35647371     0.16100
F315        F  0.29821483  0.33583726  0.43664944    -0.23300
H316        H  0.26447309  0.34659920  0.47891904     0.17900
C317        C  0.35091783  0.45772013  0.14425016    -0.27400
C318        C  0.33579030  0.49300984  0.16201034     0.06200
C319        C  0.32358586  0.47153646  0.20280000     0.25900
C320        C  0.32733427  0.41738265  0.22798330    -0.11900
C321        C  0.34313789  0.38326172  0.21228726    -0.25800
C322        C  0.35446938  0.40325501  0.16840823     0.36700
C323        C  0.33275941  0.55171666  0.13716117     0.06300
F324        F  0.30857013  0.50421274  0.22007434    -0.19600
H325        H  0.31835528  0.40348877  0.26141366     0.16100
F326        F  0.36939698  0.37110719  0.14958171    -0.23300
H327        H  0.36011600  0.47263813  0.11167739     0.17900
C328        C  0.34733794  0.59380111  0.13686310     0.25900
C329        C  0.34442212  0.64812206  0.11146409    -0.11800
C330        C  0.32693661  0.66252440  0.08520078    -0.25900
C331        C  0.31271961  0.61792448  0.08361870     0.36800
C332        C  0.31552482  0.56450040  0.11060543    -0.27500
F333        F  0.36447034  0.58233541  0.16095091    -0.19600
H334        H  0.35608814  0.67917688  0.11136486     0.16100
F335        F  0.29673327  0.62218636  0.05235674    -0.23300
H336        H  0.30445966  0.53148488  0.10829263     0.17900
C337        C  0.32482198  0.97825299  0.19007602    -0.27400
C338        C  0.33857797  0.93350805  0.18748110     0.06200
C339        C  0.35580666  0.94041380  0.21675476     0.25900
C340        C  0.35896231  0.99051339  0.24911677    -0.11900
C341        C  0.34485289  0.03416720  0.25371415    -0.25800
C342        C  0.32778829  0.02776351  0.22318996     0.36700
C343        C  0.33487454  0.87978605  0.15432431     0.06300
F344        F  0.36952468  0.89837814  0.21433063    -0.19600
H345        H  0.37207435  0.99377441  0.27269690     0.16100
F346        F  0.31377591  0.06888269  0.22619415    -0.23300
H347        H  0.31149989  0.97397488  0.16763349     0.17900
C348        C  0.33446030  0.82414985  0.17879700     0.25900
C349        C  0.33143465  0.77366344  0.14698838    -0.11800
C350        C  0.32925705  0.77675982  0.08928910    -0.25900
C351        C  0.32870718  0.83376694  0.06578103     0.36800
C352        C  0.33154468  0.88409039  0.09785141    -0.27500
F353        F  0.33645614  0.81871570  0.23392460    -0.19600
H354        H  0.33042799  0.73257617  0.16858966     0.16100
F355        F  0.32607784  0.84086334  0.01104367    -0.23300
H356        H  0.33149505  0.92667969  0.07826384     0.17900
C357        C  0.39172623  0.81970787  0.54851276    -0.27400
C358        C  0.39714497  0.87786047  0.55919231     0.06200
C359        C  0.41045550  0.88927148  0.60126025     0.25900
C360        C  0.41852816  0.84303481  0.63104725    -0.11900
C361        C  0.41334520  0.78477610  0.61979329    -0.25800
C362        C  0.39974272  0.77345109  0.57844066     0.36700
C363        C  0.38888150  0.92625776  0.52626099     0.06300
F364        F  0.41538575  0.94518083  0.61418297    -0.19600
H365        H  0.42874325  0.85276322  0.66331346     0.16100
F366        F  0.39477371  0.71765289  0.56529371    -0.23300
H367        H  0.38154858  0.81006163  0.51611725     0.17900
C368        C  0.40070940  0.96649682  0.49944937     0.25900
C369        C  0.39274648  0.01248850  0.46916926    -0.11800
C370        C  0.37282194  0.01918236  0.46457763    -0.25900
C371        C  0.36099859  0.97790135  0.49062009     0.36800
C372        C  0.36901989  0.93201911  0.52107180    -0.27500
F373        F  0.41998030  0.96052957  0.50143269    -0.19600
H374        H  0.40227207  0.04263691  0.44887635     0.16100
F375        F  0.34169927  0.98186044  0.48727426    -0.23300
H376        H  0.35968538  0.90120980  0.54125591     0.17900
C377        C  0.37115731  0.42041114  0.51764129    -0.27400
C378        C  0.38111821  0.47050941  0.50050610     0.06200
C379        C  0.38356345  0.48012510  0.44415515     0.25900
C380        C  0.37789339  0.43792290  0.40622766    -0.11900
C381        C  0.36938818  0.38547737  0.42330256    -0.25800
C382        C  0.36515351  0.37820324  0.47923000     0.36700
C383        C  0.39103011  0.50916258  0.54045993     0.06300
F384        F  0.39222993  0.52944346  0.42583944    -0.19600
H385        H  0.38076324  0.44554053  0.36327559     0.16100
F386        F  0.35646072  0.32880667  0.49718266    -0.23300
H387        H  0.36901433  0.41231780  0.56086143     0.17900
C388        C  0.38165219  0.53478777  0.58527230     0.25900
C389        C  0.39156004  0.57293790  0.62053336    -0.11800
C390        C  0.41086912  0.58651614  0.61130872    -0.25900
C391        C  0.42010582  0.56055277  0.56627906     0.36800
C392        C  0.41037991  0.52162844  0.53224808    -0.27500
F393        F  0.36284822  0.52455341  0.59387567    -0.19600
H394        H  0.38406796  0.59193205  0.65491446     0.16100
F395        F  0.43826941  0.57477174  0.55299157    -0.23300
H396        H  0.41797123  0.50194792  0.49832175     0.17900
C397        C  0.99815953  0.80539178  0.79105069    -0.27400
C398        C  0.00971314  0.85035915  0.81208963     0.06200
C399        C  0.00107577  0.89980698  0.83563390     0.25900
C400        C  0.98132389  0.90201730  0.84193005    -0.11900
C401        C  0.96972982  0.85460397  0.82537404    -0.25800
C402        C  0.97840522  0.80749320  0.79724417     0.36700
C403        C  0.03066613  0.84289703  0.81401987     0.06300
F404        F  0.01179268  0.94458651  0.85566809    -0.19600
H405        H  0.97558385  0.94076735  0.86096737     0.16100
F406        F  0.96782896  0.76204701  0.77780968    -0.23300
H407        H  0.00452593  0.76756906  0.77131938     0.17900
C408        C  0.03855897  0.79145426  0.83628349     0.25900
C409        C  0.05824310  0.78474471  0.84012367    -0.11800
C410        C  0.07058204  0.82915056  0.82227981    -0.25900
C411        C  0.06272925  0.88104152  0.80041762     0.36800
C412        C  0.04289043  0.88763060  0.79620832    -0.27500
F413        F  0.02723698  0.74816758  0.85584472    -0.19600
H414        H  0.06383025  0.74454586  0.85766224     0.16100
F415        F  0.07412287  0.92464020  0.78195980    -0.23300
H416        H  0.03705832  0.92750058  0.77868678     0.17900
C417        C  0.85312673  0.77111412  0.60529728    -0.27400
C418        C  0.86152072  0.82516580  0.61869363     0.06200
C419        C  0.85692382  0.87431310  0.58657633     0.25900
C420        C  0.84532527  0.86865672  0.54030676    -0.11900
C421        C  0.83801222  0.81362085  0.52355902    -0.25800
C422        C  0.84101175  0.76577168  0.55969986     0.36700
C423        C  0.87532064  0.83033428  0.66510633     0.06300
F424        F  0.86327289  0.92857075  0.60052689    -0.19600
H425        H  0.84175418  0.90859857  0.51881127     0.16100
F426        F  0.83261564  0.71311592  0.55020100    -0.23300
H427        H  0.85614755  0.73249007  0.62960931     0.17900
C428        C  0.87219185  0.80267604  0.71576486     0.25900
C429        C  0.88568902  0.80735461  0.75811563    -0.11800
C430        C  0.90233173  0.84080077  0.75146550    -0.25900
C431        C  0.90500425  0.87042903  0.70150960     0.36800
C432        C  0.89193682  0.86381029  0.65863873    -0.27500
F433        F  0.85595329  0.77207170  0.72490094    -0.19600
H434        H  0.88310460  0.78411086  0.79588991     0.16100
F435        F  0.91991917  0.90731287  0.69416000    -0.23300
H436        H  0.89488592  0.88521197  0.62008040     0.17900
C437        C  0.82281097  0.04600044  0.30439493    -0.27400
C438        C  0.83223384  0.02954758  0.35309983     0.06200
C439        C  0.84427216  0.07025891  0.37919895     0.25900
C440        C  0.84758350  0.12493037  0.35557034    -0.11900
C441        C  0.83916345  0.14034731  0.30505369    -0.25800
C442        C  0.82620723  0.10092617  0.28043159     0.36700
C443        C  0.82984678  0.96996432  0.37661851     0.06300
F444        F  0.85312959  0.05678019  0.42724319    -0.19600
H445        H  0.85749229  0.15439581  0.37581193     0.16100
F446        F  0.81786953  0.11352882  0.23146352    -0.23300
H447        H  0.81342595  0.01531648  0.28371231     0.17900
C448        C  0.81173059  0.94829468  0.38950543     0.25900
C449        C  0.80987266  0.89543203  0.41807189    -0.11800
C450        C  0.82608915  0.86279402  0.43491590    -0.25900
C451        C  0.84409335  0.88178144  0.41576030     0.36800
C452        C  0.84592069  0.93529590  0.38843020    -0.27500
F453        F  0.79581985  0.97952899  0.37659052    -0.19600
H454        H  0.79560447  0.88078154  0.42715925     0.16100
F455        F  0.86018469  0.85065300  0.42717079    -0.23300
H456        H  0.86001575  0.95027826  0.37725573     0.17900
C457        C  0.86007672  0.58782790  0.31189548    -0.27400
C458        C  0.84218445  0.60186713  0.33423837     0.06200
C459        C  0.82691723  0.56286052  0.32557069     0.25900
C460        C  0.82928911  0.51262474  0.29333178    -0.11900
C461        C  0.84699589  0.49932394  0.26970380    -0.25800
C462        C  0.86253358  0.53694343  0.28019507     0.36700
C463        C  0.83923614  0.65718045  0.36590294     0.06300
F464        F  0.80963488  0.57325623  0.34840525    -0.19600
H465        H  0.81711484  0.48441915  0.28608123     0.16100
F466        F  0.87978213  0.52660613  0.25709064    -0.23300
H467        H  0.87203361  0.61726405  0.31748014     0.17900
C468        C  0.85169507  0.67369861  0.40851592     0.25900
C469        C  0.84767256  0.72285457  0.44104909    -0.11800
C470        C  0.83065557  0.75574459  0.43374247    -0.25900
C471        C  0.81929312  0.74203830  0.38717769     0.36800
C472        C  0.82344834  0.69326848  0.35439124    -0.27500
F473        F  0.86744486  0.64113063  0.42020936    -0.19600
H474        H  0.85806189  0.73431598  0.47208974     0.16100
F475        F  0.80344522  0.77394648  0.37506514    -0.23300
H476        H  0.81403545  0.68301585  0.32030981     0.17900
C477        C  0.88325335  0.99765907  0.94096799    -0.27400
C478        C  0.89187136  0.01503914  0.99057717     0.06200
C479        C  0.90977612  0.99145105  0.00509085     0.25900
C480        C  0.91888989  0.95172724  0.97054058    -0.11900
C481        C  0.91040658  0.93461476  0.92079366    -0.25800
C482        C  0.89239880  0.95738084  0.90637250     0.36700
C483        C  0.88255094  0.05792923  0.02753466     0.06300
F484        F  0.91873936  0.00813617  0.05210555    -0.19600
H485        H  0.93268678  0.93433310  0.98267791     0.16100
F486        F  0.88399977  0.94236610  0.85807377    -0.23300
H487        H  0.86945505  0.01522014  0.92913487     0.17900
C488        C  0.87723644  0.11426111  0.00924368     0.25900
C489        C  0.87147720  0.15719078  0.04705166    -0.11800
C490        C  0.87122281  0.14447331  0.10334040    -0.25900
C491        C  0.87527593  0.08709260  0.12087268     0.36800
C492        C  0.88075064  0.04429063  0.08325984    -0.27500
F493        F  0.87888589  0.12891651  0.95561752    -0.19600
H494        H  0.86829336  0.20112472  0.03278236     0.16100
F495        F  0.87433171  0.07274778  0.17474562    -0.23300
H496        H  0.88434273  0.00081514  0.09799278     0.17900
C497        C  0.87451675  0.58846867  0.00272819    -0.27400
C498        C  0.89433556  0.59619421  0.00336923     0.06200
C499        C  0.90576750  0.55852808  0.03528229     0.25900
C500        C  0.89741789  0.51319937  0.06521653    -0.11900
C501        C  0.87751300  0.50499142  0.06431276    -0.25800
C502        C  0.86612603  0.54361509  0.03277484     0.33900
C503        C  0.90277809  0.64407048  0.97086118     0.06300
F504        F  0.92501678  0.56484313  0.03666507    -0.19600
H505        H  0.90657295  0.48467854  0.08929036     0.16100
F506        F  0.84684960  0.53834695  0.03057536    -0.23300
H507        H  0.86545279  0.61771939  0.97910915     0.17900
C508        C  0.89818288  0.65034954  0.91491355     0.25900
C509        C  0.90517672  0.69793019  0.88529164    -0.11800
C510        C  0.91705328  0.73913256  0.91083822    -0.25900
C511        C  0.92203930  0.73231837  0.96626290     0.36800
C512        C  0.91484192  0.68524076  0.99614248    -0.27500
F513        F  0.88716927  0.60995639  0.88883427    -0.19600
H514        H  0.90156380  0.70220810  0.84225571     0.16100
F515        F  0.93349938  0.77203081  0.99165328    -0.23300
H516        H  0.91838411  0.68151389  0.03927576     0.17900
C517        C  0.00318985  0.37196215  0.25816682    -0.27400
C518        C  0.99157095  0.35362226  0.21455728     0.06200
C519        C  0.00002899  0.33355185  0.16621529     0.25900
C520        C  0.01985524  0.32968536  0.16238804    -0.11900
C521        C  0.03179105  0.34380458  0.20732753    -0.25800
C522        C  0.02311339  0.36826305  0.25448468     0.36700
C523        C  0.97064952  0.35137818  0.22032603     0.06300
F524        F  0.98904425  0.31699033  0.12284064    -0.19600
H525        H  0.02585666  0.31497409  0.12399967     0.16100
F526        F  0.03359242  0.39088907  0.29631477    -0.23300
H527        H  0.99679644  0.38892394  0.29525603     0.17900
C528        C  0.96199587  0.29798674  0.23326369     0.25900
C529        C  0.94218439  0.29299746  0.23212440    -0.11800
C530        C  0.93051729  0.34112835  0.21794472    -0.25900
C531        C  0.93921328  0.39569943  0.20786611     0.36800
C532        C  0.95919782  0.40052726  0.20876593    -0.27500
F533        F  0.97278479  0.25008111  0.24530495    -0.19600
H534        H  0.93598431  0.25068400  0.24116172     0.16100
F535        F  0.92855189  0.44354411  0.19488896    -0.23300
H536        H  0.96576064  0.44205783  0.19878160     0.17900
C537        C  0.76602259  0.22431696  0.07198054    -0.27400
C538        C  0.75194252  0.26819377  0.07001774     0.06200
C539        C  0.75543207  0.32207739  0.09620749     0.25900
C540        C  0.77303633  0.33282612  0.12143381    -0.11900
C541        C  0.78754977  0.29001045  0.12148823    -0.25800
C542        C  0.78370110  0.23497828  0.09733440     0.36700
C543        C  0.73370771  0.25832371  0.04023156     0.06300
F544        F  0.74176250  0.36438822  0.09745168    -0.19600
H545        H  0.77538300  0.37530177  0.14022475     0.16100
F546        F  0.79718247  0.19214601  0.09637413    -0.23300
H547        H  0.76351551  0.18232009  0.05241857     0.17900
C548        C  0.72767996  0.29714432  0.99902411     0.25900
C549        C  0.70966101  0.29122923  0.97478795    -0.11800
C550        C  0.69677048  0.24765198  0.99239821    -0.25900
C551        C  0.70394286  0.20488956  0.02954706     0.36800
C552        C  0.72203278  0.21084507  0.05358584    -0.27500
F553        F  0.73928040  0.34099220  0.98210568    -0.19600
H554        H  0.70599571  0.32153148  0.94243050     0.16100
F555        F  0.69291206  0.15934834  0.04564341    -0.23300
H556        H  0.72664281  0.17947022  0.08425053     0.17900
C557        C  0.50058425  0.17568432  0.37685148    -0.27400
C558        C  0.49098628  0.17902799  0.32643078     0.06200
C559        C  0.50160774  0.18620376  0.27843271     0.25900
C560        C  0.52151120  0.19034108  0.28095090    -0.11900
C561        C  0.53134921  0.18820290  0.33166107    -0.25800
C562        C  0.52046057  0.18041627  0.37963187     0.36700
C563        C  0.46985968  0.17995602  0.32476239     0.06300
F564        F  0.49269698  0.18925785  0.22891833    -0.19600
H565        H  0.52879272  0.19571320  0.24266044     0.16100
F566        F  0.52905584  0.17853004  0.42965025    -0.23300
H567        H  0.49259352  0.17108080  0.41440205     0.17900
C568        C  0.45900723  0.13280133  0.34456002     0.25900
C569        C  0.43899188  0.13642070  0.34556655    -0.11800
C570        C  0.42961348  0.18766735  0.32798665    -0.25900
C571        C  0.44063217  0.23445504  0.30758087     0.36800
C572        C  0.46047044  0.23023699  0.30565750    -0.27500
F573        F  0.46779863  0.08347145  0.36300545    -0.19600
H574        H  0.43088699  0.10001854  0.36161670     0.16100
F575        F  0.43226098  0.28473335  0.28959838    -0.23300
H576        H  0.46859670  0.26711711  0.29058665     0.17900
C577        C  0.62738657  0.20055578  0.20029601    -0.27400
C578        C  0.62202752  0.23693738  0.15629735     0.06200
C579        C  0.60417653  0.26518288  0.15779505     0.25900
C580        C  0.59203081  0.25691434  0.20238569    -0.11900
C581        C  0.59732668  0.22003425  0.24618771    -0.25800
C582        C  0.61522701  0.19208740  0.24475798     0.36700
C583        C  0.63516251  0.24430014  0.10920184     0.06300
F584        F  0.59860210  0.30157828  0.11670540    -0.19600
H585        H  0.57846100  0.27974228  0.20276098     0.16100
F586        F  0.62068218  0.15442072  0.28492916    -0.23300
H587        H  0.64091761  0.17749533  0.19964848     0.17900
C588        C  0.65443708  0.25766105  0.11831221     0.25900
C589        C  0.66720546  0.25925261  0.07476318    -0.11800
C590        C  0.66136968  0.24594570  0.02042852    -0.25900
C591        C  0.64153029  0.23815913  0.01118168     0.36800
C592        C  0.62874417  0.23622208  0.05507473    -0.27500
F593        F  0.66095183  0.27002965  0.16957445    -0.19600
H594        H  0.68165792  0.27197518  0.08449533     0.16100
F595        F  0.63458420  0.22977454  0.95968922    -0.23300
H596        H  0.61386514  0.22677031  0.04679741     0.17900
C597        C  0.77687074  0.74255464  0.52587243    -0.27400
C598        C  0.76971576  0.78958538  0.55672168     0.06200
C599        C  0.78020552  0.84183013  0.55882105     0.25900
C600        C  0.79729073  0.84674123  0.52998934    -0.11900
C601        C  0.80462844  0.79998759  0.49791589    -0.25800
C602        C  0.79411299  0.74679763  0.49774677     0.36700
C603        C  0.75155722  0.78234563  0.58720474     0.06300
F604        F  0.77443223  0.88738368  0.59060027    -0.19600
H605        H  0.80512099  0.88744391  0.53351475     0.16100
F606        F  0.80069061  0.69699101  0.47406520    -0.23300
H607        H  0.76917128  0.70145042  0.52425902     0.17900
C608        C  0.73660202  0.82350048  0.58270496     0.25900
C609        C  0.71882093  0.81199079  0.60616543    -0.11800
C610        C  0.71550476  0.75900314  0.63382531    -0.25900
C611        C  0.73076943  0.71921924  0.64057333     0.36800
C612        C  0.74856154  0.73108764  0.61775818    -0.27500
F613        F  0.73869711  0.87293224  0.55251572    -0.19600
H614        H  0.70733047  0.84323450  0.60006691     0.16100
F615        F  0.72844183  0.66803339  0.66801283    -0.23300
H616        H  0.75993207  0.69918832  0.62265591     0.17900
C617        C  0.67861233  0.97047587  0.86109744    -0.27400
C618        C  0.67204995  0.02558686  0.84312899     0.06200
C619        C  0.66191066  0.02937424  0.79345235     0.25900
C620        C  0.65738720  0.97855186  0.76405887    -0.11900
C621        C  0.66327167  0.92312132  0.78288297    -0.25800
C622        C  0.67448994  0.91952363  0.83078684     0.36700
C623        C  0.67420916  0.07851324  0.87800870     0.06300
F624        F  0.65538772  0.08195925  0.77510077    -0.19600
H625        H  0.64871812  0.98227313  0.72726013     0.16100
F626        F  0.68026925  0.86660373  0.85024735    -0.23300
H627        H  0.68645778  0.96684016  0.89935630     0.17900
C628        C  0.66388914  0.08390416  0.92669769     0.25900
C629        C  0.66434740  0.13619407  0.95685458    -0.11800
C630        C  0.67481046  0.18551568  0.93874448    -0.25900
C631        C  0.68615032  0.17772641  0.89128529     0.36800
C632        C  0.68548284  0.12550879  0.86093243    -0.27500
F633        F  0.65289771  0.03893851  0.94440468    -0.19600
H634        H  0.65662082  0.13680751  0.99490585     0.16100
F635        F  0.69762017  0.22138962  0.87333885    -0.23300
H636        H  0.69371282  0.12184243  0.82369404     0.17900
C637        C  0.66765147  0.40599196  0.92689998    -0.27400
C638        C  0.66154961  0.40068534  0.87247041     0.06200
C639        C  0.65870000  0.34445864  0.85043370     0.25900
C640        C  0.66262351  0.29435229  0.88195550    -0.11900
C641        C  0.67002118  0.29890890  0.93602894    -0.25800
C642        C  0.67141017  0.35622807  0.95865887     0.36700
C643        C  0.65913327  0.45403391  0.83837707     0.06300
F644        F  0.65261653  0.33796093  0.79782673    -0.19600
H645        H  0.65975780  0.25226894  0.86333743     0.16100
F646        F  0.67730857  0.36447280  0.01117855    -0.23300
H647        H  0.66968529  0.44907075  0.94479350     0.17900
C648        C  0.64100128  0.47346457  0.82124853     0.25900
C649        C  0.63916716  0.52299338  0.78745713    -0.11800
C650        C  0.65541160  0.55353540  0.76970532    -0.25900
C651        C  0.67350747  0.53498653  0.78879743     0.36800
C652        C  0.67526367  0.48596023  0.82288382    -0.27500
F653        F  0.62511444  0.44430427  0.83695091    -0.19600
H654        H  0.62508606  0.53602058  0.77341417     0.16100
F655        F  0.68958908  0.56377808  0.77402522    -0.23300
H656        H  0.68932997  0.47201708  0.83631425     0.17900
C657        C  0.60524465  0.91599144  0.51287478    -0.27400
C658        C  0.61777391  0.96137299  0.49849029     0.06200
C659        C  0.63610628  0.96237373  0.52287984     0.25900
C660        C  0.64122195  0.92067870  0.56268291    -0.11900
C661        C  0.62821392  0.87727365  0.57863905    -0.25800
C662        C  0.61045623  0.87402380  0.55168182     0.36700
C663        C  0.61088646  0.00893578  0.46117672     0.06300
F664        F  0.64896025  0.00409525  0.50905433    -0.19600
H665        H  0.65500472  0.92403253  0.58282650     0.16100
F666        F  0.59781870  0.83112110  0.56408459    -0.23300
H667        H  0.59095579  0.91418770  0.49584121     0.17900
C668        C  0.59917356  0.99589727  0.41552943     0.25900
C669        C  0.59024773  0.04083061  0.38603454    -0.11800
C670        C  0.59306705  0.09980035  0.40034711    -0.25900
C671        C  0.60567878  0.11332201  0.44363419     0.36800
C672        C  0.61432270  0.06825329  0.47403827    -0.27500
F673        F  0.59607206  0.93958500  0.39973898    -0.19600
H674        H  0.58086722  0.02945640  0.35218686     0.16100
F675        F  0.60864224  0.16981526  0.45906967    -0.23300
H676        H  0.62293361  0.07992997  0.50939856     0.17900
C677        C  0.59730875  0.49398962  0.52210739    -0.27400
C678        C  0.60909343  0.44721423  0.50577092     0.06200
C679        C  0.62873865  0.45001410  0.51719095     0.25900
C680        C  0.63640568  0.49852584  0.54419906    -0.11900
C681        C  0.62472740  0.54546190  0.56092797    -0.25800
C682        C  0.60498675  0.54274324  0.54945674     0.36700
C683        C  0.60110408  0.39650191  0.47519414     0.06300
F684        F  0.64053063  0.40510464  0.50335092    -0.19600
H685        H  0.65157929  0.49862050  0.55290395     0.16100
F686        F  0.59311098  0.58717065  0.56400239    -0.23300
H687        H  0.58216670  0.49316066  0.51293730     0.17900
C688        C  0.58489482  0.36651548  0.49380662     0.25900
C689        C  0.57755501  0.31921018  0.46377213    -0.11800
C690        C  0.58630561  0.30075534  0.41498755    -0.25900
C691        C  0.60266491  0.33026047  0.39693509     0.36800
C692        C  0.60986252  0.37777607  0.42662018    -0.27500
F693        F  0.57639432  0.38214444  0.54147379    -0.19600
H694        H  0.56508909  0.29663851  0.47888953     0.16100
F695        F  0.61126664  0.31509548  0.34933444    -0.23300
H696        H  0.62216924  0.40077249  0.41100435     0.17900
C697        C  0.53888127  0.72291835  0.74465802    -0.27400
C698        C  0.53134693  0.67748841  0.71244934     0.06200
C699        C  0.54393688  0.63946449  0.68495801     0.25900
C700        C  0.56373244  0.64829128  0.68855158    -0.11900
C701        C  0.57120160  0.69534860  0.71929087    -0.25800
C702        C  0.55849537  0.73167311  0.74844069     0.36700
C703        C  0.51032803  0.67201608  0.70726783     0.06300
F704        F  0.53710328  0.59412528  0.65455971    -0.19600
H705        H  0.57314584  0.61976734  0.66561810     0.16100
F706        F  0.56495537  0.77672487  0.77990248    -0.23300
H707        H  0.52947412  0.75290258  0.76597611     0.17900
C708        C  0.49891827  0.67203302  0.75425575     0.25900
C709        C  0.47906327  0.67334765  0.74973611    -0.11800
C710        C  0.46992999  0.67493135  0.69805230    -0.25900
C711        C  0.48153392  0.67396020  0.65087187     0.36800
C712        C  0.50145843  0.67230854  0.65557092    -0.27500
F713        F  0.50702465  0.67111083  0.80495417    -0.19600
H714        H  0.47126502  0.67372227  0.78749223     0.16100
F715        F  0.47357417  0.67565570  0.59998128    -0.23300
H716        H  0.50998344  0.67325597  0.61875878     0.17900
loop_ 
_geom_bond_atom_site_label_1 
_geom_bond_atom_site_label_2 
_geom_bond_distance 
_geom_bond_site_symmetry_2 
_ccdc_geom_bond_type 
O1           Ni7   1.929       .  S
O1           C22   1.270       .  A
O2          Ni25   1.914       .  S
O2           C11   1.269       .  A
O3           Ni7   1.911       .  S
O3          Ni25   1.907       .  S
O3          Ni19   1.908       .  S
O3           H26   0.965       .  S
C4           O21   1.269       .  A
C4           O13   1.270       .  A
C4          C621   1.479       .  S
O5          Ni24   1.912       .  S
O5           C11   1.268       .  A
O6          Ni24   1.894       .  S
O6            C8   1.268       .  A
Ni7          O10   1.924       .  S
Ni7          O12   1.901       .  S
C8           O18   1.278       .  A
C8          C661   1.480       .  S
O9          Ni25   1.915       .  S
O9           C15   1.274       .  A
O10          C15   1.276       .  A
C11         C701   1.484       .  S
O12          C14   1.268       .  A
O13         Ni24   1.928       .  S
C14          O20   1.277       .  A
C14         C650   1.490       .  S
C15         C681   1.486       .  S
H16          O17   0.965       .  S
O17         Ni25   1.936       .  S
O17         Ni19   1.923       .  S
O17         Ni24   1.919       .  S
O18         Ni19   1.956       .  S
Ni19         O23   1.912       .  S
Ni19         O21   1.920       .  S
O20         Ni25   1.945       .  S
C22          O23   1.268       .  A
C22         C610   1.485       .  S
C27          C28   1.538       .  S
C27          C33   1.536       .  S
C27          C31   1.546       .  S
C27         C561   1.535       .  S
C28          H35   1.086       .  S
C28          C29   1.366       .  D
C29          C30   1.539       .  S
C29         C690   1.484       .  S
C30          C34   1.539       .  S
C30          C32   1.542       .  S
C30          H36   1.108       .  S
C31          H37   1.080       .  S
C31          C32   1.368       .  D
C32         C581   1.491       .  S
C33          H38   1.086       .  S
C33          C34   1.366       .  D
C34         C670   1.486       .  S
C39         C550   1.561       .  S
C39         C590   1.564   1_556  S
C39         C630   1.564       .  S
C39         C641   1.565       .  S
O40         Ni46   1.932       .  S
O40          C61   1.274       .  A
O41         Ni64   1.925       .  S
O41          C50   1.271       .  A
O42         Ni46   1.894       .  S
O42         Ni64   1.904       .  S
O42         Ni58   1.913       .  S
O42          H65   0.966       .  S
C43          O60   1.283       .  A
C43          O52   1.275       .  A
C43         C441   1.487       .  S
O44         Ni63   1.917       .  S
O44          C50   1.269       .  A
O45         Ni63   1.911       .  S
O45          C47   1.269       .  A
Ni46         O49   1.931       .  S
Ni46         O51   1.905       .  S
C47          O57   1.270       .  A
C47         C490   1.475       .  S
O48         Ni64   1.912       .  S
O48          C54   1.277       .  A
O49          C54   1.279       .  A
C50         C530   1.486       .  S
O51          C53   1.269       .  A
O52         Ni63   1.906       .  S
C53          O59   1.275       .  A
C53         C461   1.485       .  S
C54         C501   1.486       .  S
H55          O56   0.966       .  S
O56         Ni64   1.916       .  S
O56         Ni58   1.907       .  S
O56         Ni63   1.896       .  S
O57         Ni58   1.927       .  S
Ni58         O62   1.912       .  S
Ni58         O60   1.946       .  S
O59         Ni64   1.941       .  S
C61          O62   1.271       .  A
C61         C541   1.488       .  S
C66          C67   1.535       .  S
C66          C72   1.543       .  S
C66          C70   1.533       .  S
C66         C401   1.526       .  S
C67          H74   1.087       .  S
C67          C68   1.360       .  D
C68          C69   1.536       .  S
C68         C510   1.470       .  S
C69          C73   1.536       .  S
C69          C71   1.542       .  S
C69          H75   1.109       .  S
C70          H76   1.085       .  S
C70          C71   1.369       .  D
C71         C430   1.490       .  S
C72          H77   1.081       .  S
C72          C73   1.365       .  D
C73         C481   1.481       .  S
C78         C421   1.560       .  S
C78         C450   1.560       .  S
C78         C470   1.561       .  S
C78         C601   1.562       .  S
O79         Ni85   1.935       .  S
O79         C100   1.275       .  A
O80        Ni103   1.934       .  S
O80          C89   1.275       .  A
O81         Ni85   1.893       .  S
O81        Ni103   1.907       .  S
O81         Ni97   1.919       .  S
O81         H104   0.966       .  S
C82          O99   1.288       .  A
C82          O91   1.275       .  A
C82         C321   1.490       .  S
O83        Ni102   1.909       .  S
O83          C89   1.266       .  A
O84        Ni102   1.908       .  S
O84          C86   1.268       .  A
Ni85         O88   1.944       .  S
Ni85         O90   1.898       .  S
C86          O96   1.268       .  A
C86         C381   1.480       .  S
O87        Ni103   1.901       .  S
O87          C93   1.274       .  A
O88          C93   1.281       .  A
C89         C570   1.484       .  S
O90          C92   1.267       .  A
O91        Ni102   1.900       .  S
C92          O98   1.281       .  A
C92         C341   1.488       .  S
C93         C370   1.486       .  S
H94          O95   0.966       .  S
O95        Ni103   1.911       .  S
O95         Ni97   1.896       .  S
O95        Ni102   1.887       .  S
O96         Ni97   1.928       .  S
Ni97        O101   1.909       .  S
Ni97         O99   1.956       .  S
O98        Ni103   1.960       .  S
C100        O101   1.271       .  A
C100        C310   1.482       .  S
C105        C106   1.539       .  S
C105        C111   1.535       .  S
C105        C109   1.542       .  S
C105        C710   1.533       .  S
C106        H113   1.086       .  S
C106        C107   1.366       .  D
C107        C108   1.536       .  S
C107        C361   1.482       .  S
C108        C112   1.539       .  S
C108        C110   1.536       .  S
C108        H114   1.109       .  S
C109        H115   1.080       .  S
C109        C110   1.364       .  D
C110        C281   1.478       .  S
C111        H116   1.085       .  S
C111        C112   1.370       .  D
C112        C390   1.489       .  S
C117        C270   1.559       .  S
C117        C290   1.561       .  S
C117        C330   1.566       .  S
C117        C350   1.565       .  S
O118       Ni124   1.920       .  S
O118        C139   1.270       .  A
O119       Ni142   1.917       .  S
O119        C128   1.271       .  A
O120       Ni124   1.889       .  S
O120       Ni142   1.896       .  S
O120       Ni136   1.910       .  S
O120        H143   0.966       .  S
C121        O138   1.281       .  A
C121        O130   1.277       .  A
C121        C181   1.483       .  S
O122       Ni141   1.919       .  S
O122        C128   1.270       .  A
O123       Ni141   1.907       .  S
O123        C125   1.269       .  A
Ni124       O127   1.924       .  S
Ni124       O129   1.902       .  S
C125        O135   1.272       .  A
C125        C230   1.480       .  S
O126       Ni142   1.924       .  S
O126        C132   1.282       .  A
O127        C132   1.280       .  A
C128        C410   1.478       .  S
O129        C131   1.268       .  A
O130       Ni141   1.915       .  S
C131        O137   1.274       .  A
C131        C210   1.486       .  S
C132        C241   1.488       .  S
H133        O134   0.966       .  S
O134       Ni142   1.919       .  S
O134       Ni136   1.902       .  S
O134       Ni141   1.890       .  S
O135       Ni136   1.934       .  S
Ni136       O140   1.912       .  S
Ni136       O138   1.939       .  S
O137       Ni142   1.940       .  S
C139        O140   1.271       .  A
C139        C261   1.480       .  S
C144        C145   1.544       .  S
C144        C150   1.534       .  S
C144        C148   1.541       .  S
C144        C521   1.534       .  S
C145        H152   1.086       .  S
C145        C146   1.365       .  D
C146        C147   1.534       .  S
C146        C250   1.478       .  S
C147        C151   1.541       .  S
C147        C149   1.538       .  S
C147        H153   1.109       .  S
C148        H154   1.083       .  S
C148        C149   1.365       .  D
C149        C170   1.477       .  S
C150        H155   1.086       .  S
C150        C151   1.370       .  D
C151        C221   1.496       .  S
C156        C161   1.563       .  S
C156        C190   1.562       .  S
C156        C201   1.565       .  S
C156        C301   1.557       .  S
C157        C158   1.398       .  A
C157        C162   1.397       .  A
C157        H167   1.083       .  S
C158        C163   1.476       .  S
C158        C159   1.401       .  A
C159        C160   1.395       .  A
C159        F164   1.358       .  S
C160        C161   1.416       .  A
C160        H165   1.078       .  S
C161        C162   1.422       .  A
C162        F166   1.358       .  S
C163        C168   1.404       .  A
C163        C172   1.404       .  A
C168        C169   1.395       .  A
C168        F173   1.357       .  S
C169        C170   1.400       .  A
C169        H174   1.078       .  S
C170        C171   1.407       .  A
C171        C172   1.399       .  A
C171        F175   1.358       .  S
C172        H176   1.083       .  S
C177        C178   1.403       .  A
C177        C182   1.397       .  A
C177        H187   1.084       .  S
C178        C183   1.483       .  S
C178        C179   1.406       .  A
C179        C180   1.404       .  A
C179        F184   1.357       .  S
C180        C181   1.408       .  A
C180        H185   1.083       .  S
C181        C182   1.408       .  A
C182        F186   1.358       .  S
C183        C188   1.403       .  A
C183        C192   1.399       .  A
C188        C189   1.398       .  A
C188        F193   1.357       .  S
C189        C190   1.413       .  A
C189        H194   1.083       .  S
C190        C191   1.425       .  A
C191        C192   1.402       .  A
C191        F195   1.356       .  S
C192        H196   1.083       .  S
C197        C198   1.407       .  A
C197        C202   1.401       .  A
C197        H207   1.083       .  S
C198        C203   1.496       .  S
C198        C199   1.404       .  A
C199        C200   1.399       .  A
C199        F204   1.357       .  S
C200        C201   1.420       .  A
C200        H205   1.079       .  S
C201        C202   1.415       .  A
C202        F206   1.356       .  S
C203        C208   1.409       .  A
C203        C212   1.410       .  A
C208        C209   1.397   1_545  A
C208        F213   1.357       .  S
C209        C210   1.405       .  A
C209        H214   1.083       .  S
C210        C211   1.408   1_565  A
C211        C212   1.404       .  A
C211        F215   1.358       .  S
C212        H216   1.082       .  S
C217        C218   1.402       .  A
C217        C222   1.403       .  A
C217        H227   1.083       .  S
C218        C223   1.482       .  S
C218        C219   1.405       .  A
C219        C220   1.394       .  A
C219        F224   1.358   1_554  S
C220        C221   1.407       .  A
C220        H225   1.082       .  S
C221        C222   1.412       .  A
C222        F226   1.353       .  S
C223        C228   1.409       .  A
C223        C232   1.401   1_554  A
C228        C229   1.406   1_554  A
C228        F233   1.357       .  S
C229        C230   1.406       .  A
C229        H234   1.083   1_556  S
C230        C231   1.408       .  A
C231        C232   1.393       .  A
C231        F235   1.358       .  S
C232        H236   1.084       .  S
C237        C238   1.406       .  A
C237        C242   1.399   1_554  A
C237        H247   1.083       .  S
C238        C243   1.485       .  S
C238        C239   1.405       .  A
C239        C240   1.396   1_554  A
C239        F244   1.358       .  S
C240        C241   1.410   1_545  A
C240        H245   1.083       .  S
C241        C242   1.409   1_565  A
C242        F246   1.357   1_545  S
C243        C248   1.408       .  A
C243        C252   1.407       .  A
C248        C249   1.396       .  A
C248        F253   1.357   1_554  S
C249        C250   1.402       .  A
C249        H254   1.083       .  S
C250        C251   1.404       .  A
C251        C252   1.399       .  A
C251        F255   1.358       .  S
C252        H256   1.083       .  S
C257        C258   1.402       .  A
C257        C262   1.395       .  A
C257        H267   1.083       .  S
C258        C263   1.480       .  S
C258        C259   1.406       .  A
C259        C260   1.400       .  A
C259        F264   1.357   1_556  S
C260        C261   1.405       .  A
C260        H265   1.083       .  S
C261        C262   1.410       .  A
C262        F266   1.358       .  S
C263        C268   1.400       .  A
C263        C272   1.402   1_556  A
C268        C269   1.393       .  A
C268        F273   1.358       .  S
C269        C270   1.418   1_556  A
C269        H274   1.079       .  S
C270        C271   1.419       .  A
C271        C272   1.400       .  A
C271        F275   1.357       .  S
C272        H276   1.083       .  S
C277        C278   1.400       .  A
C277        C282   1.396       .  A
C277        H287   1.083       .  S
C278        C283   1.471       .  S
C278        C279   1.404       .  A
C279        C280   1.399       .  A
C279        F284   1.357       .  S
C280        C281   1.403       .  A
C280        H285   1.083       .  S
C281        C282   1.408       .  A
C282        F286   1.358       .  S
C283        C288   1.396       .  A
C283        C292   1.398       .  A
C288        C289   1.394       .  A
C288        F293   1.358       .  S
C289        C290   1.419   1_556  A
C289        H294   1.083       .  S
C290        C291   1.422       .  A
C291        C292   1.399   1_554  A
C291        F295   1.354       .  S
C292        H296   1.084       .  S
C297        C298   1.397       .  A
C297        C302   1.398       .  A
C297        H307   1.083       .  S
C298        C303   1.482       .  S
C298        C299   1.404       .  A
C299        C300   1.398       .  A
C299        F304   1.358       .  S
C300        C301   1.414       .  A
C300        H305   1.078       .  S
C301        C302   1.423       .  A
C302        F306   1.357       .  S
C303        C308   1.404       .  A
C303        C312   1.404       .  A
C308        C309   1.396       .  A
C308        F313   1.358       .  S
C309        C310   1.406       .  A
C309        H314   1.083       .  S
C310        C311   1.409       .  A
C311        C312   1.402       .  A
C311        F315   1.357       .  S
C312        H316   1.083       .  S
C317        C318   1.400       .  A
C317        C322   1.397       .  A
C317        H327   1.084       .  S
C318        C323   1.485       .  S
C318        C319   1.407       .  A
C319        C320   1.404       .  A
C319        F324   1.357       .  S
C320        C321   1.407       .  A
C320        H325   1.083       .  S
C321        C322   1.415       .  A
C322        F326   1.358       .  S
C323        C328   1.404       .  A
C323        C332   1.397       .  A
C328        C329   1.400       .  A
C328        F333   1.358       .  S
C329        C330   1.417       .  A
C329        H334   1.083       .  S
C330        C331   1.426       .  A
C331        C332   1.399       .  A
C331        F335   1.354       .  S
C332        H336   1.084       .  S
C337        C338   1.403       .  A
C337        C342   1.402   1_565  A
C337        H347   1.083       .  S
C338        C343   1.489       .  S
C338        C339   1.407       .  A
C339        C340   1.404       .  A
C339        F344   1.357       .  S
C340        C341   1.406   1_565  A
C340        H345   1.083       .  S
C341        C342   1.412       .  A
C342        F346   1.358       .  S
C343        C348   1.404       .  A
C343        C352   1.400       .  A
C348        C349   1.403       .  A
C348        F353   1.358       .  S
C349        C350   1.417       .  A
C349        H354   1.079       .  S
C350        C351   1.422       .  A
C351        C352   1.401       .  A
C351        F355   1.357       .  S
C352        H356   1.083       .  S
C357        C358   1.404       .  A
C357        C362   1.398       .  A
C357        H367   1.083       .  S
C358        C363   1.480       .  S
C358        C359   1.406       .  A
C359        C360   1.398       .  A
C359        F364   1.358       .  S
C360        C361   1.404       .  A
C360        H365   1.083       .  S
C361        C362   1.407       .  A
C362        F366   1.357       .  S
C363        C368   1.405       .  A
C363        C372   1.403       .  A
C368        C369   1.397   1_565  A
C368        F373   1.358       .  S
C369        C370   1.408       .  A
C369        H374   1.083       .  S
C370        C371   1.412   1_545  A
C371        C372   1.399       .  A
C371        F375   1.357       .  S
C372        H376   1.083       .  S
C377        C378   1.407       .  A
C377        C382   1.405       .  A
C377        H387   1.083       .  S
C378        C383   1.483       .  S
C378        C379   1.405       .  A
C379        C380   1.390       .  A
C379        F384   1.358       .  S
C380        C381   1.403       .  A
C380        H385   1.084       .  S
C381        C382   1.409       .  A
C382        F386   1.357       .  S
C383        C388   1.406       .  A
C383        C392   1.403       .  A
C388        C389   1.404       .  A
C388        F393   1.357       .  S
C389        C390   1.409       .  A
C389        H394   1.082       .  S
C390        C391   1.408       .  A
C391        C392   1.391       .  A
C391        F395   1.357       .  S
C392        H396   1.083       .  S
C397        C398   1.402   1_655  A
C397        C402   1.395       .  A
C397        H407   1.083   1_655  S
C398        C403   1.478       .  S
C398        C399   1.402       .  A
C399        C400   1.395   1_455  A
C399        F404   1.357       .  S
C400        C401   1.411       .  A
C400        H405   1.076       .  S
C401        C402   1.412       .  A
C402        F406   1.358       .  S
C403        C408   1.404       .  A
C403        C412   1.406       .  A
C408        C409   1.390       .  A
C408        F413   1.358       .  S
C409        C410   1.406       .  A
C409        H414   1.083       .  S
C410        C411   1.408       .  A
C411        C412   1.401       .  A
C411        F415   1.357       .  S
C412        H416   1.083       .  S
C417        C418   1.404       .  A
C417        C422   1.400       .  A
C417        H427   1.082       .  S
C418        C423   1.488       .  S
C418        C419   1.404       .  A
C419        C420   1.392       .  A
C419        F424   1.358       .  S
C420        C421   1.415       .  A
C420        H425   1.080       .  S
C421        C422   1.419       .  A
C422        F426   1.357       .  S
C423        C428   1.408       .  A
C423        C432   1.405       .  A
C428        C429   1.400       .  A
C428        F433   1.357       .  S
C429        C430   1.406       .  A
C429        H434   1.081       .  S
C430        C431   1.409       .  A
C431        C432   1.393       .  A
C431        F435   1.357       .  S
C432        H436   1.083       .  S
C437        C438   1.406       .  A
C437        C442   1.405       .  A
C437        H447   1.083       .  S
C438        C443   1.486   1_545  S
C438        C439   1.405       .  A
C439        C440   1.395       .  A
C439        F444   1.358       .  S
C440        C441   1.408       .  A
C440        H445   1.083       .  S
C441        C442   1.410       .  A
C442        F446   1.357       .  S
C443        C448   1.402       .  A
C443        C452   1.403       .  A
C448        C449   1.401       .  A
C448        F453   1.357       .  S
C449        C450   1.415       .  A
C449        H454   1.080       .  S
C450        C451   1.419       .  A
C451        C452   1.399       .  A
C451        F455   1.358       .  S
C452        H456   1.083       .  S
C457        C458   1.407       .  A
C457        C462   1.404       .  A
C457        H467   1.083       .  S
C458        C463   1.492       .  S
C458        C459   1.408       .  A
C459        C460   1.398       .  A
C459        F464   1.357       .  S
C460        C461   1.405       .  A
C460        H465   1.083       .  S
C461        C462   1.410       .  A
C462        F466   1.358       .  S
C463        C468   1.404       .  A
C463        C472   1.404       .  A
C468        C469   1.401       .  A
C468        F473   1.357       .  S
C469        C470   1.417       .  A
C469        H474   1.079       .  S
C470        C471   1.417       .  A
C471        C472   1.400       .  A
C471        F475   1.357       .  S
C472        H476   1.083       .  S
C477        C478   1.406   1_565  A
C477        C482   1.403       .  A
C477        H487   1.083   1_565  S
C478        C483   1.483   1_556  S
C478        C479   1.407   1_546  A
C479        C480   1.393   1_554  A
C479        F484   1.358   1_565  S
C480        C481   1.403       .  A
C480        H485   1.083       .  S
C481        C482   1.406       .  A
C482        F486   1.357       .  S
C483        C488   1.409       .  A
C483        C492   1.403       .  A
C488        C489   1.404       .  A
C488        F493   1.357   1_554  S
C489        C490   1.405       .  A
C489        H494   1.083       .  S
C490        C491   1.405       .  A
C491        C492   1.393       .  A
C491        F495   1.358       .  S
C492        H496   1.083       .  S
C497        C498   1.401       .  A
C497        C502   1.394       .  A
C497        H507   1.084   1_554  S
C498        C503   1.479   1_554  S
C498        C499   1.405       .  A
C499        C500   1.399       .  A
C499        F504   1.357       .  S
C500        C501   1.408       .  A
C500        H505   1.083       .  S
C501        C502   1.412       .  A
C502        F506   1.357       .  S
C503        C508   1.408       .  A
C503        C512   1.404       .  A
C508        C509   1.397       .  A
C508        F513   1.358       .  S
C509        C510   1.399       .  A
C509        H514   1.083       .  S
C510        C511   1.403       .  A
C511        C512   1.397       .  A
C511        F515   1.358       .  S
C512        H516   1.083   1_556  S
C517        C518   1.399   1_455  A
C517        C522   1.402       .  A
C517        H527   1.083   1_455  S
C518        C523   1.475       .  S
C518        C519   1.400   1_655  A
C519        C520   1.396       .  A
C519        F524   1.358   1_455  S
C520        C521   1.411       .  A
C520        H525   1.082       .  S
C521        C522   1.418       .  A
C522        F526   1.355       .  S
C523        C528   1.400       .  A
C523        C532   1.404       .  A
C528        C529   1.394       .  A
C528        F533   1.358       .  S
C529        C530   1.409       .  A
C529        H534   1.083       .  S
C530        C531   1.410       .  A
C531        C532   1.405       .  A
C531        F535   1.357       .  S
C532        H536   1.083       .  S
C537        C538   1.404       .  A
C537        C542   1.402       .  A
C537        H547   1.083       .  S
C538        C543   1.483       .  S
C538        C539   1.405       .  A
C539        C540   1.397       .  A
C539        F544   1.358       .  S
C540        C541   1.408       .  A
C540        H545   1.083       .  S
C541        C542   1.411       .  A
C542        F546   1.357       .  S
C543        C548   1.403   1_554  A
C543        C552   1.400       .  A
C548        C549   1.397       .  A
C548        F553   1.358       .  S
C549        C550   1.415       .  A
C549        H554   1.079       .  S
C550        C551   1.421   1_556  A
C551        C552   1.400       .  A
C551        F555   1.357       .  S
C552        H556   1.083       .  S
C557        C558   1.400       .  A
C557        C562   1.399       .  A
C557        H567   1.083       .  S
C558        C563   1.481       .  S
C558        C559   1.403       .  A
C559        C560   1.399       .  A
C559        F564   1.358       .  S
C560        C561   1.413       .  A
C560        H565   1.076       .  S
C561        C562   1.414       .  A
C562        F566   1.358       .  S
C563        C568   1.408       .  A
C563        C572   1.399       .  A
C568        C569   1.405       .  A
C568        F573   1.357       .  S
C569        C570   1.405       .  A
C569        H574   1.083       .  S
C570        C571   1.413       .  A
C571        C572   1.395       .  A
C571        F575   1.358       .  S
C572        H576   1.084       .  S
C577        C578   1.406       .  A
C577        C582   1.399       .  A
C577        H587   1.083       .  S
C578        C583   1.488       .  S
C578        C579   1.406       .  A
C579        C580   1.400       .  A
C579        F584   1.357       .  S
C580        C581   1.408       .  A
C580        H585   1.083       .  S
C581        C582   1.406       .  A
C582        F586   1.357       .  S
C583        C588   1.402       .  A
C583        C592   1.404       .  A
C588        C589   1.396       .  A
C588        F593   1.358       .  S
C589        C590   1.417       .  A
C589        H594   1.079       .  S
C590        C591   1.419       .  A
C591        C592   1.403       .  A
C591        F595   1.358   1_554  S
C592        H596   1.083       .  S
C597        C598   1.403       .  A
C597        C602   1.398       .  A
C597        H607   1.083       .  S
C598        C603   1.489       .  S
C598        C599   1.402       .  A
C599        C600   1.399       .  A
C599        F604   1.357       .  S
C600        C601   1.419       .  A
C600        H605   1.083       .  S
C601        C602   1.421       .  A
C602        F606   1.354       .  S
C603        C608   1.408       .  A
C603        C612   1.405       .  A
C608        C609   1.401       .  A
C608        F613   1.357       .  S
C609        C610   1.406       .  A
C609        H614   1.083       .  S
C610        C611   1.409       .  A
C611        C612   1.397       .  A
C611        F615   1.358       .  S
C612        H616   1.083       .  S
C617        C618   1.407   1_565  A
C617        C622   1.405       .  A
C617        H627   1.083       .  S
C618        C623   1.483       .  S
C618        C619   1.403       .  A
C619        C620   1.397   1_545  A
C619        F624   1.358       .  S
C620        C621   1.405       .  A
C620        H625   1.084       .  S
C621        C622   1.406       .  A
C622        F626   1.357       .  S
C623        C628   1.401       .  A
C623        C632   1.400       .  A
C628        C629   1.400       .  A
C628        F633   1.358       .  S
C629        C630   1.418       .  A
C629        H634   1.079       .  S
C630        C631   1.420       .  A
C631        C632   1.401       .  A
C631        F635   1.357       .  S
C632        H636   1.083       .  S
C637        C638   1.397       .  A
C637        C642   1.399       .  A
C637        H647   1.083       .  S
C638        C643   1.484       .  S
C638        C639   1.403       .  A
C639        C640   1.404       .  A
C639        F644   1.358       .  S
C640        C641   1.418       .  A
C640        H645   1.079       .  S
C641        C642   1.421       .  A
C642        F646   1.357   1_556  S
C643        C648   1.405       .  A
C643        C652   1.402       .  A
C648        C649   1.405       .  A
C648        F653   1.357       .  S
C649        C650   1.408       .  A
C649        H654   1.083       .  S
C650        C651   1.412       .  A
C651        C652   1.399       .  A
C651        F655   1.358       .  S
C652        H656   1.084       .  S
C657        C658   1.406       .  A
C657        C662   1.394       .  A
C657        H667   1.082       .  S
C658        C663   1.494   1_565  S
C658        C659   1.412       .  A
C659        C660   1.404       .  A
C659        F664   1.357   1_565  S
C660        C661   1.405       .  A
C660        H665   1.083       .  S
C661        C662   1.405       .  A
C662        F666   1.358       .  S
C663        C668   1.410   1_545  A
C663        C672   1.409       .  A
C668        C669   1.397   1_565  A
C668        F673   1.357       .  S
C669        C670   1.403       .  A
C669        H674   1.083       .  S
C670        C671   1.406       .  A
C671        C672   1.402       .  A
C671        F675   1.357       .  S
C672        H676   1.082       .  S
C677        C678   1.406       .  A
C677        C682   1.402       .  A
C677        H687   1.083       .  S
C678        C683   1.484       .  S
C678        C679   1.404       .  A
C679        C680   1.393       .  A
C679        F684   1.358       .  S
C680        C681   1.407       .  A
C680        H685   1.083       .  S
C681        C682   1.411       .  A
C682        F686   1.357       .  S
C683        C688   1.407       .  A
C683        C692   1.404       .  A
C688        C689   1.400       .  A
C688        F693   1.358       .  S
C689        C690   1.407       .  A
C689        H694   1.083       .  S
C690        C691   1.406       .  A
C691        C692   1.395       .  A
C691        F695   1.357       .  S
C692        H696   1.083       .  S
C697        C698   1.401       .  A
C697        C702   1.392       .  A
C697        H707   1.083       .  S
C698        C703   1.483       .  S
C698        C699   1.408       .  A
C699        C700   1.405       .  A
C699        F704   1.357       .  S
C700        C701   1.408       .  A
C700        H705   1.083       .  S
C701        C702   1.410       .  A
C702        F706   1.358       .  S
C703        C708   1.403       .  A
C703        C712   1.402       .  A
C708        C709   1.395       .  A
C708        F713   1.358       .  S
C709        C710   1.411       .  A
C709        H714   1.075       .  S
C710        C711   1.415       .  A
C711        C712   1.401       .  A
C711        F715   1.358       .  S
C712        H716   1.083       .  S
