geometry optimzed in LAMMPS
_audit_creation_date              2020-11-30 
_audit_creation_method            'lammps2cif' 
_symmetry_space_group_name_H-M    'P1' 
_symmetry_Int_Tables_number       1 
_symmetry_cell_setting            triclinic 
loop_ 
_symmetry_equiv_pos_as_xyz 
  x,y,z 
_cell_length_a                    40.91204380043301 
_cell_length_b                    41.37372288577928 
_cell_length_c                    40.291373348422766 
_cell_angle_alpha                 89.90108782465265 
_cell_angle_beta                  89.90587810112488 
_cell_angle_gamma                 89.95069396753004 
loop_ 
_atom_site_label 
_atom_site_type_symbol 
_atom_site_fract_x 
_atom_site_fract_y 
_atom_site_fract_z 
_atom_site_charge 
C1          C  0.84963361  0.35094007  0.84997313    -0.02750
C2          C  0.35735593  0.85649229  0.84873611    -0.02750
C3          C  0.34845819  0.85505255  0.18726599    -0.02750
C4          C  0.68531438  0.85965701  0.85214312    -0.02750
C5          C  0.35820563  0.17689524  0.85750123    -0.02750
C6          C  0.85294101  0.68473826  0.85079202    -0.02750
C7          C  0.19143602  0.35160809  0.85110485    -0.02750
C8          C  0.85106714  0.35122141  0.18364357    -0.02750
C9          C  0.85229231  0.85638281  0.67963667    -0.02750
C10         C  0.18608779  0.85407838  0.34862782    -0.02750
C11         C  0.85045253  0.68833811  0.18655141    -0.02750
C12         C  0.17869036  0.68264379  0.85677046    -0.02750
C13         C  0.67667665  0.17748273  0.85305845    -0.02750
C14         C  0.68182850  0.85421197  0.18209718    -0.02750
C15         C  0.85251113  0.18442209  0.68793246    -0.02750
C16         C  0.19277802  0.84718562  0.69387695    -0.02750
O17         O  0.55559111  0.76463663  0.30784225    -0.74690
O18         O  0.48477740  0.80959877  0.26521831    -0.74720
O19         O  0.48984963  0.76456834  0.31453703    -0.74780
O20         O  0.55088384  0.81046925  0.25892343    -0.74830
O21         O  0.54850173  0.77069133  0.22183049    -0.74760
O22         O  0.48619514  0.72554958  0.27679277    -0.74740
O23         O  0.48207909  0.77087498  0.22707952    -0.74710
O24         O  0.55195335  0.72511805  0.27080119    -0.74780
Ni25       Ni  0.52039266  0.78872243  0.28789806     1.25410
Ni26       Ni  0.51702518  0.74674413  0.24772017     1.25360
C27         C  0.56512834  0.73703196  0.29686169     0.87490
C28         C  0.47171510  0.79773206  0.23897466     0.87420
C29         C  0.47831207  0.73725081  0.30521453     0.87450
C30         C  0.56011458  0.79798341  0.23136872     0.87620
O31         O  0.49074422  0.77893035  0.81088367    -0.74690
O32         O  0.55348665  0.72341551  0.76930452    -0.74720
O33         O  0.55641528  0.77567726  0.81018865    -0.74780
O34         O  0.48753035  0.72663958  0.76971841    -0.74830
O35         O  0.48895886  0.75892526  0.72559281    -0.74760
O36         O  0.55760927  0.80814718  0.76611088    -0.74740
O37         O  0.55493572  0.75589038  0.72523685    -0.74710
O38         O  0.49174002  0.81142542  0.76663290    -0.74780
Ni39       Ni  0.52201795  0.75001156  0.79156669     1.25410
Ni40       Ni  0.52337954  0.78477878  0.74433996     1.25360
C41         C  0.48078095  0.80416270  0.79550580     0.87490
C42         C  0.56475398  0.73047932  0.74051714     0.87420
C43         C  0.56800155  0.80039425  0.79506308     0.87450
C44         C  0.47698615  0.73433911  0.74078692     0.87620
O45         O  0.76601775  0.31215886  0.55578495    -0.74690
O46         O  0.80949044  0.26280941  0.48845532    -0.74720
O47         O  0.76411664  0.31188607  0.48829095    -0.74780
O48         O  0.80986513  0.26218454  0.55538040    -0.74830
O49         O  0.76870102  0.22713340  0.55570958    -0.74760
O50         O  0.72376985  0.27590656  0.48996270    -0.74740
O51         O  0.76841034  0.22738249  0.48903721    -0.74710
O52         O  0.72520475  0.27672931  0.55688775    -0.74780
Ni53       Ni  0.78883517  0.28861615  0.52197004     1.25410
Ni54       Ni  0.74513686  0.25057887  0.52296058     1.25360
C55         C  0.73837731  0.30291821  0.56735487     0.87490
C56         C  0.79620819  0.23686138  0.47785008     0.87420
C57         C  0.73613847  0.30180363  0.47802002     0.87450
C58         C  0.79667294  0.23600590  0.56627006     0.87620
C59         C  0.68234729  0.18461838  0.18246192    -0.02750
C60         C  0.68826649  0.35274386  0.35224735    -0.02750
O61         O  0.72372247  0.54833849  0.27361146    -0.74690
O62         O  0.76970342  0.48719344  0.21945246    -0.74720
O63         O  0.72748056  0.48323428  0.27165586    -0.74780
O64         O  0.76704644  0.55326918  0.22187894    -0.74830
O65         O  0.80950405  0.55227919  0.25631486    -0.74760
O66         O  0.76942784  0.48454166  0.30675420    -0.74740
O67         O  0.81133546  0.48629647  0.25505838    -0.74710
O68         O  0.76642051  0.54959021  0.30795200    -0.74780
Ni69       Ni  0.74555812  0.51802420  0.24528283     1.25410
Ni70       Ni  0.79066150  0.51831030  0.28270346     1.25360
C71         C  0.73765216  0.55911415  0.29969418     0.87490
C72         C  0.79689160  0.47514307  0.22930380     0.87420
C73         C  0.74225816  0.47232768  0.29747678     0.87450
C74         C  0.79505520  0.56431415  0.23094131     0.87620
C75         C  0.68664871  0.68278608  0.35149159    -0.02750
C76         C  0.76654946  0.77417690  0.27192099    -0.02750
O77         O  0.73021705  0.76228327  0.55002397    -0.74690
O78         O  0.77310498  0.80852449  0.48059867    -0.74720
O79         O  0.72802882  0.75965813  0.48267532    -0.74780
O80         O  0.77610114  0.80985562  0.54760646    -0.74830
O81         O  0.81595804  0.77309912  0.54574103    -0.74760
O82         O  0.76800985  0.72326896  0.48417492    -0.74740
O83         O  0.81279764  0.77186713  0.47916335    -0.74710
O84         O  0.77017255  0.72579565  0.55101017    -0.74780
Ni85       Ni  0.75039659  0.78639231  0.51517955     1.25410
Ni86       Ni  0.79307923  0.74720761  0.51492956     1.25360
C87         C  0.74295583  0.73672788  0.56244642     0.87490
C88         C  0.80016765  0.79844500  0.46855675     0.87420
C89         C  0.74069579  0.73293431  0.47263286     0.87450
C90         C  0.80393473  0.79910441  0.55747862     0.87620
C91         C  0.68778388  0.68830395  0.68843740    -0.02750
C92         C  0.77131675  0.77625324  0.76970103    -0.02750
O93         O  0.81386108  0.48623871  0.76838236    -0.74690
O94         O  0.76426484  0.55302971  0.72651149    -0.74720
O95         O  0.81622467  0.55129699  0.76830152    -0.74780
O96         O  0.76126787  0.48752019  0.72723340    -0.74830
O97         O  0.72862978  0.48918018  0.77158169    -0.74760
O98         O  0.78313970  0.55269685  0.81233176    -0.74740
O99         O  0.73109898  0.55477304  0.77054114    -0.74710
O100        O  0.78112870  0.48784240  0.81276374    -0.74780
Ni101      Ni  0.79007604  0.51947434  0.74602723     1.25410
Ni102      Ni  0.75471136  0.52119087  0.79328809     1.25360
C103        C  0.80571478  0.47604980  0.79722653     0.87490
C104        C  0.74010254  0.56548791  0.74203735     0.87420
C105        C  0.80882717  0.56229975  0.79714550     0.87450
C106        C  0.73618625  0.47732407  0.74324101     0.87620
C107        C  0.68462766  0.35718959  0.68886938    -0.02750
C108        C  0.76109144  0.26281905  0.77341616    -0.02750
O109        O  0.48939483  0.31463460  0.76888165    -0.74690
O110        O  0.55269565  0.25958524  0.81233748    -0.74720
O111        O  0.55536651  0.30874203  0.76620835    -0.74780
O112        O  0.48682199  0.26617298  0.81488246    -0.74830
O113        O  0.48214516  0.22971910  0.77448988    -0.74760
O114        O  0.55008275  0.27288588  0.72549677    -0.74740
O115        O  0.54759959  0.22402725  0.77130175    -0.74710
O116        O  0.48415724  0.27865009  0.72832563    -0.74780
Ni117      Ni  0.52128999  0.28858119  0.79199200     1.25410
Ni118      Ni  0.51582459  0.25010229  0.74845167     1.25360
C119        C  0.47628334  0.30582680  0.74141560     0.87490
C120        C  0.55995490  0.23216407  0.79932705     0.87420
C121        C  0.56389072  0.29804627  0.73761034     0.87450
C122        C  0.47369228  0.24056045  0.80304186     0.87620
C123        C  0.18314468  0.18912178  0.68315908    -0.02750
C124        C  0.35671086  0.35167539  0.68670276    -0.02750
O125        O  0.26951062  0.48565650  0.72162452    -0.74690
O126        O  0.22161406  0.55413449  0.76703298    -0.74720
O127        O  0.26932973  0.55184305  0.71974684    -0.74780
O128        O  0.22034692  0.48841144  0.76778561    -0.74830
O129        O  0.25823876  0.48839972  0.80753024    -0.74760
O130        O  0.30731109  0.55294643  0.75929591    -0.74740
O131        O  0.25972889  0.55337401  0.80629644    -0.74710
O132        O  0.30699786  0.48738354  0.76159307    -0.74780
Ni133      Ni  0.24388186  0.52002626  0.74252623     1.25410
Ni134      Ni  0.28437217  0.52056867  0.78500732     1.25360
C135        C  0.29594163  0.47474800  0.73497302     0.87490
C136        C  0.23327178  0.56501807  0.79449572     0.87420
C137        C  0.29573413  0.56353849  0.73173480     0.87450
C138        C  0.23132345  0.47770768  0.79536635     0.87620
C139        C  0.35333595  0.68523324  0.68967031    -0.02750
C140        C  0.27454128  0.76204002  0.78201288    -0.02750
O141        O  0.27499720  0.72694433  0.55356431    -0.74690
O142        O  0.22971767  0.77269874  0.48523927    -0.74720
O143        O  0.27563400  0.72562501  0.48691731    -0.74780
O144        O  0.22926515  0.77381951  0.55252789    -0.74830
O145        O  0.26819548  0.81112272  0.55284107    -0.74760
O146        O  0.31485870  0.76286639  0.48522231    -0.74740
O147        O  0.26832102  0.81057809  0.48453064    -0.74710
O148        O  0.31461294  0.76401301  0.55268153    -0.74780
Ni149      Ni  0.25104990  0.74857694  0.51949782     1.25410
Ni150      Ni  0.29289915  0.78860278  0.51871995     1.25360
C151        C  0.30200781  0.73812077  0.56455330     0.87490
C152        C  0.24164650  0.79876899  0.47304921     0.87420
C153        C  0.30297946  0.73577624  0.47543346     0.87450
C154        C  0.24129172  0.79976007  0.56464489     0.87620
C155        C  0.18461376  0.68535468  0.18258319    -0.02750
C156        C  0.35823059  0.68203592  0.35459860    -0.02750
C157        C  0.35320516  0.35913544  0.34979450    -0.02750
O158        O  0.31746081  0.49071216  0.26314271    -0.74690
O159        O  0.26393665  0.55533151  0.22078295    -0.74720
O160        O  0.31596701  0.55603600  0.26344774    -0.74780
O161        O  0.26585836  0.48979995  0.22058923    -0.74830
O162        O  0.23159352  0.48828844  0.26369293    -0.74760
O163        O  0.28226653  0.55455304  0.30689891    -0.74740
O164        O  0.23026011  0.55384931  0.26422075    -0.74710
O165        O  0.28347528  0.48928608  0.30629821    -0.74780
Ni166      Ni  0.29196141  0.52306429  0.24044513     1.25410
Ni167      Ni  0.25560542  0.52152768  0.28674252     1.25360
C168        C  0.30938997  0.47928052  0.29162950     0.87490
C169        C  0.23822041  0.56542027  0.23577015     0.87420
C170        C  0.30801654  0.56560539  0.29262663     0.87450
C171        C  0.24081037  0.47783973  0.23522967     0.87620
C172        C  0.26999139  0.76305223  0.27055424    -0.02750
O173        O  0.05454231  0.80775752  0.26957909    -0.74690
O174        O  0.98538938  0.76015781  0.22635721    -0.74720
O175        O  0.98816255  0.81062983  0.26961798    -0.74780
O176        O  0.05141913  0.75775192  0.22535737    -0.74830
O177        O  0.04977475  0.72314355  0.26780699    -0.74760
O178        O  0.98713952  0.77646789  0.31254934    -0.74740
O179        O  0.98414025  0.72633744  0.26939338    -0.74710
O180        O  0.05308254  0.77298776  0.31163850    -0.74780
Ni181      Ni  0.01995660  0.78537212  0.24621706     1.25410
Ni182      Ni  0.01854977  0.74852469  0.29180050     1.25360
C183        C  0.06512112  0.79830507  0.29806199     0.87490
C184        C  0.97326947  0.73532672  0.24107535     0.87420
C185        C  0.97684391  0.80199582  0.29791387     0.87450
C186        C  0.06121711  0.73185564  0.23953719     0.87620
O187        O  0.27271726  0.81439120  0.98048754    -0.74690
O188        O  0.22790302  0.76528525  0.04801984    -0.74720
O189        O  0.27346580  0.81351756  0.04761810    -0.74780
O190        O  0.22648274  0.76634871  0.98140737    -0.74830
O191        O  0.26577136  0.72924013  0.97986322    -0.74760
O192        O  0.31354822  0.77697306  0.04675376    -0.74740
O193        O  0.26786839  0.72890457  0.04702103    -0.74710
O194        O  0.31265919  0.77802172  0.97902828    -0.74780
Ni195      Ni  0.24889326  0.79122204  0.01427308     1.25410
Ni196      Ni  0.29145717  0.75201678  0.01290045     1.25360
C197        C  0.30037624  0.80488974  0.96896981     0.87490
C198        C  0.24048721  0.73883270  0.05883091     0.87420
C199        C  0.30052699  0.80256122  0.05898654     0.87450
C200        C  0.23729108  0.73915127  0.97092428     0.87620
C201        C  0.27538364  0.26264971  0.77073120    -0.02750
O202        O  0.27620900  0.05214189  0.81093107    -0.74690
O203        O  0.22428754  0.98906486  0.76478703    -0.74720
O204        O  0.27516958  0.98688011  0.80816944    -0.74780
O205        O  0.22507445  0.05509949  0.76751537    -0.74830
O206        O  0.25947393  0.05615393  0.72468551    -0.74760
O207        O  0.30956168  0.98799971  0.76524680    -0.74740
O208        O  0.25871106  0.99033657  0.72182156    -0.74710
O209        O  0.31049309  0.05335253  0.76801963    -0.74780
Ni210      Ni  0.24880545  0.02083665  0.78923892     1.25410
Ni211      Ni  0.28571017  0.02208879  0.74340425     1.25360
C212        C  0.30241827  0.06271163  0.79727338     0.87490
C213        C  0.23367748  0.97834831  0.73643679     0.87420
C214        C  0.30093262  0.97642894  0.79352479     0.87450
C215        C  0.23416332  0.06723848  0.73965367     0.87620
O216        O  0.05361867  0.31410034  0.77329988    -0.74690
O217        O  0.98492555  0.27002487  0.72708231    -0.74720
O218        O  0.98713109  0.31484889  0.77600409    -0.74780
O219        O  0.05060987  0.26885350  0.72443740    -0.74830
O220        O  0.05202963  0.22945194  0.76213024    -0.74760
O221        O  0.98751760  0.27513479  0.81324669    -0.74740
O222        O  0.98596869  0.22999980  0.76419752    -0.74710
O223        O  0.05424417  0.27479490  0.81097499    -0.74780
Ni224      Ni  0.01909338  0.29335021  0.74892015     1.25410
Ni225      Ni  0.02001066  0.25100682  0.78907472     1.25360
C226        C  0.06563885  0.30161273  0.79970635     0.87490
C227        C  0.97400266  0.24302192  0.73802170     0.87420
C228        C  0.97615444  0.30225748  0.80285047     0.87450
C229        C  0.06152820  0.24144755  0.73443439     0.87620
O230        O  0.31602404  0.27537734  0.54985799    -0.74690
O231        O  0.27064584  0.22423157  0.48519167    -0.74720
O232        O  0.31482646  0.27414483  0.48264776    -0.74780
O233        O  0.27268681  0.22557221  0.55159469    -0.74830
O234        O  0.23114756  0.26033819  0.55179589    -0.74760
O235        O  0.27391681  0.30947322  0.48292576    -0.74740
O236        O  0.22961811  0.25955984  0.48509054    -0.74710
O237        O  0.27477402  0.31039811  0.55046177    -0.74780
Ni238      Ni  0.29501645  0.24867575  0.51722357     1.25410
Ni239      Ni  0.25095670  0.28628650  0.51751415     1.25360
C240        C  0.30282138  0.30124801  0.56119137     0.87490
C241        C  0.24202710  0.23270864  0.47544622     0.87420
C242        C  0.30174655  0.30013654  0.47154200     0.87450
C243        C  0.24483252  0.23452598  0.56276381     0.87620
C244        C  0.77088245  0.26460134  0.26769537    -0.02750
O245        O  0.77372253  0.05262154  0.30961267    -0.74690
O246        O  0.72762036  0.98539906  0.26458514    -0.74720
O247        O  0.77698238  0.98757834  0.31062423    -0.74780
O248        O  0.72583377  0.05171555  0.26261255    -0.74830
O249        O  0.76374228  0.05188786  0.22291134    -0.74760
O250        O  0.81350167  0.98889450  0.26967262    -0.74740
O251        O  0.76422935  0.98582982  0.22379728    -0.74710
O252        O  0.81155589  0.05373277  0.26993832    -0.74780
Ni253      Ni  0.74960029  0.01926557  0.28817701     1.25410
Ni254      Ni  0.78944248  0.02005771  0.24508535     1.25360
C255        C  0.80060958  0.06373416  0.29806842     0.87490
C256        C  0.73797721  0.97418973  0.23687347     0.87420
C257        C  0.80443516  0.97844474  0.29810503     0.87450
C258        C  0.73706761  0.06289704  0.23499369     0.87620
O259        O  0.76482412  0.31558129  0.98124475    -0.74690
O260        O  0.71788815  0.26747973  0.04747722    -0.74720
O261        O  0.76392885  0.31522554  0.04821119    -0.74780
O262        O  0.71871268  0.26733628  0.98074788    -0.74830
O263        O  0.75796937  0.23018378  0.98158703    -0.74760
O264        O  0.80376880  0.27839960  0.04849921    -0.74740
O265        O  0.75725007  0.23042125  0.04843749    -0.74710
O266        O  0.80431799  0.27858667  0.98155434    -0.74780
Ni267      Ni  0.74002134  0.29273699  0.01430190     1.25410
Ni268      Ni  0.78227360  0.25310594  0.01493340     1.25360
C269        C  0.79279055  0.30563056  0.97110836     0.87490
C270        C  0.72937922  0.24073127  0.05862744     0.87420
C271        C  0.79119360  0.30463257  0.05954599     0.87450
C272        C  0.73009454  0.24004481  0.97104156     0.87620
O273        O  0.48700566  0.27932101  0.31060495    -0.74690
O274        O  0.55245501  0.22781240  0.26813441    -0.74720
O275        O  0.55356782  0.27836469  0.31110651    -0.74780
O276        O  0.48638075  0.22920038  0.26683867    -0.74830
O277        O  0.48780206  0.26341436  0.22424541    -0.74760
O278        O  0.55457809  0.31211098  0.26804508    -0.74740
O279        O  0.55374102  0.26145036  0.22502376    -0.74710
O280        O  0.48807054  0.31361385  0.26781497    -0.74780
Ni281      Ni  0.51982952  0.25250838  0.29071981     1.25410
Ni282      Ni  0.52112740  0.28897094  0.24487819     1.25360
C283        C  0.47609406  0.30442972  0.29576311     0.87490
C284        C  0.56373360  0.23568868  0.23960594     0.87420
C285        C  0.56565299  0.30315277  0.29633202     0.87450
C286        C  0.47611598  0.23803058  0.23804014     0.87620
C287        C  0.18718727  0.35451377  0.18534955    -0.02750
C288        C  0.35259731  0.18543818  0.18805224    -0.02750
C289        C  0.18541024  0.18482114  0.35411553    -0.02750
C290        C  0.26983939  0.26996066  0.27149325    -0.02750
O291        O  0.05062715  0.27480540  0.22915815    -0.74690
O292        O  0.98491278  0.22908342  0.27746717    -0.74720
O293        O  0.98418537  0.27498155  0.22865684    -0.74780
O294        O  0.05063177  0.22935173  0.27806357    -0.74830
O295        O  0.04959641  0.26810894  0.31646811    -0.74760
O296        O  0.98376224  0.31346116  0.26701310    -0.74740
O297        O  0.98333155  0.26751361  0.31597611    -0.74710
O298        O  0.05049958  0.31379032  0.26701236    -0.74780
Ni299      Ni  0.01751594  0.25075155  0.25200801     1.25410
Ni300      Ni  0.01673991  0.29213715  0.29297008     1.25360
C301        C  0.06214933  0.30147355  0.24013372     0.87490
C302        C  0.97347788  0.24015270  0.30480069     0.87420
C303        C  0.97297061  0.30196723  0.23962235     0.87450
C304        C  0.06117720  0.24147645  0.30527704     0.87620
O305        O  0.30933083  0.05461841  0.26132466    -0.74690
O306        O  0.26120292  0.98961533  0.30967058    -0.74720
O307        O  0.30991670  0.98934249  0.26298408    -0.74780
O308        O  0.25996650  0.05529136  0.30789500    -0.74830
O309        O  0.22281161  0.05427492  0.26772456    -0.74760
O310        O  0.27235638  0.98797830  0.22323743    -0.74740
O311        O  0.22396346  0.98878957  0.26928777    -0.74710
O312        O  0.27175774  0.05271500  0.22145799    -0.74780
Ni313      Ni  0.28639518  0.02235584  0.28699748     1.25410
Ni314      Ni  0.24639854  0.02098212  0.24411050     1.25360
C315        C  0.29876171  0.06370539  0.23285200     0.87490
C316        C  0.23503112  0.97807330  0.29688451     0.87420
C317        C  0.29953427  0.97793484  0.23533842     0.87450
C318        C  0.23284623  0.06540474  0.29560841     0.87620
O319        O  0.22822973  0.27468071  0.98391669    -0.74690
O320        O  0.27348418  0.22336420  0.04936911    -0.74720
O321        O  0.22873277  0.27279864  0.05115639    -0.74780
O322        O  0.27218481  0.22392011  0.98334554    -0.74830
O323        O  0.31385813  0.25830894  0.98372321    -0.74760
O324        O  0.26927470  0.30842033  0.05151327    -0.74740
O325        O  0.31423378  0.25910649  0.04993759    -0.74710
O326        O  0.26976414  0.30922251  0.98394313    -0.74780
Ni327      Ni  0.24919131  0.24752034  0.01682079     1.25410
Ni328      Ni  0.29316478  0.28511750  0.01710848     1.25360
C329        C  0.24136247  0.30102641  0.97352885     0.87490
C330        C  0.30130360  0.23291162  0.06034542     0.87420
C331        C  0.24140180  0.29873053  0.06272789     0.87450
C332        C  0.30106471  0.23153677  0.97401118     0.87620
O333        O  0.98378595  0.73091685  0.77338285    -0.74690
O334        O  0.05273661  0.77623534  0.72571794    -0.74720
O335        O  0.04966567  0.73000866  0.77446500    -0.74780
O336        O  0.98612134  0.77571803  0.72360612    -0.74830
O337        O  0.98440733  0.81521320  0.76121923    -0.74760
O338        O  0.04916980  0.76958103  0.81206690    -0.74740
O339        O  0.05039370  0.81519389  0.76378864    -0.74710
O340        O  0.98353986  0.77050216  0.81065374    -0.74780
Ni341      Ni  0.01810052  0.75186279  0.74779964     1.25410
Ni342      Ni  0.01682963  0.79400181  0.78818612     1.25360
C343        C  0.97256773  0.74346908  0.80031801     0.87490
C344        C  0.06316000  0.80322785  0.73757426     0.87420
C345        C  0.05977378  0.74220242  0.80164255     0.87450
C346        C  0.97421695  0.80236139  0.73422619     0.87620
O347        O  0.77132369  0.98757925  0.81669105    -0.74690
O348        O  0.81904118  0.05017933  0.76715734    -0.74720
O349        O  0.77230570  0.05243991  0.81497043    -0.74780
O350        O  0.81735889  0.98518602  0.76801415    -0.74830
O351        O  0.77832230  0.98565088  0.72971112    -0.74760
O352        O  0.73284935  0.05196215  0.77674286    -0.74740
O353        O  0.78003460  0.05131821  0.72877442    -0.74710
O354        O  0.73189538  0.98688639  0.77874213    -0.74780
Ni355      Ni  0.79631845  0.01879981  0.79305233     1.25410
Ni356      Ni  0.75437353  0.01890538  0.75204597     1.25360
C357        C  0.74384798  0.97693570  0.80642261     0.87490
C358        C  0.80780288  0.06120867  0.73979074     0.87420
C359        C  0.74518206  0.06315913  0.80343919     0.87450
C360        C  0.80545992  0.97452516  0.74072678     0.87620
O361        O  0.77306279  0.73282270  0.05360737    -0.74690
O362        O  0.72288762  0.77420214  0.98536617    -0.74720
O363        O  0.77025904  0.72777173  0.98624904    -0.74780
O364        O  0.72603577  0.77982676  0.05170684    -0.74830
O365        O  0.76485434  0.81729596  0.04689673    -0.74760
O366        O  0.80842663  0.76577702  0.98129117    -0.74740
O367        O  0.76093487  0.81243360  0.98063179    -0.74710
O368        O  0.81145548  0.77058264  0.04853127    -0.74780
Ni369      Ni  0.74676718  0.75223481  0.01940773     1.25410
Ni370      Ni  0.78784211  0.79276533  0.01409260     1.25360
C371        C  0.80033188  0.74510999  0.06277905     0.87490
C372        C  0.73308319  0.80067824  0.97254346     0.87420
C373        C  0.79677028  0.73822792  0.97289534     0.87450
C374        C  0.73793683  0.80746525  0.05960964     0.87620
C375        C  0.85176368  0.18097080  0.35546461    -0.02750
C376        C  0.85462449  0.85822118  0.34911066    -0.02750
C377        C  0.92672926  0.20378234  0.30028014    -0.26580
C378        C  0.94686821  0.22133406  0.32136931    -0.14660
C379        C  0.93974836  0.22079788  0.35586027     0.35970
C380        C  0.91075425  0.20562186  0.36735123    -0.26030
C381        C  0.88836256  0.19007218  0.34561698    -0.15270
C382        C  0.89826624  0.18882234  0.31120793     0.37060
N383        N  0.87805043  0.17484186  0.28590041    -0.89520
H384        H  0.93179704  0.20326853  0.27385263     0.18170
H385        H  0.90540791  0.20900104  0.39310929     0.18160
N386        N  0.96078801  0.23555504  0.38004984    -0.88550
H387        H  0.89168751  0.15740480  0.27317364     0.35540
H388        H  0.87184528  0.19293318  0.26884626     0.40640
H389        H  0.98277980  0.24297493  0.36944947     0.40260
H390        H  0.96731573  0.21764210  0.39714520     0.35150
C391        C  0.20161784  0.12386444  0.36215849    -0.26580
C392        C  0.18657608  0.14803601  0.34243404    -0.14660
C393        C  0.17565487  0.13716526  0.31078207     0.35970
C394        C  0.18987932  0.10936071  0.29628278    -0.26030
C395        C  0.21323431  0.09076481  0.31347688    -0.15270
C396        C  0.21686612  0.09667917  0.34781149     0.37060
N397        N  0.23619578  0.07544091  0.36815961    -0.89520
H398        H  0.20429580  0.12707581  0.38856864     0.18170
H399        H  0.18392193  0.10349939  0.27081005     0.18160
N400        N  0.15234652  0.15550062  0.29204121    -0.88550
H401        H  0.23276482  0.08069329  0.39330126     0.35540
H402        H  0.26074748  0.08055846  0.36326355     0.40640
H403        H  0.13215654  0.14065840  0.28764086     0.40260
H404        H  0.16252537  0.16142366  0.26900714     0.35150
C405        C  0.14926623  0.22897917  0.32571418    -0.26580
C406        C  0.15078996  0.20057307  0.34590514    -0.14660
C407        C  0.11979510  0.18649960  0.35404471     0.35970
C408        C  0.09052305  0.19995407  0.34081080    -0.26030
C409        C  0.09089037  0.22795151  0.32080144    -0.15270
C410        C  0.12082655  0.24296709  0.31428905     0.37060
N411        N  0.12413440  0.27193406  0.29458605    -0.89520
H412        H  0.17020680  0.24169707  0.31664581     0.18170
H413        H  0.06735057  0.18842936  0.34624279     0.18160
N414        N  0.11675717  0.15834867  0.37473850    -0.88550
H415        H  0.13439171  0.28978161  0.30967469     0.35540
H416        H  0.10188925  0.28108987  0.28667700     0.40640
H417        H  0.13902339  0.15147314  0.38504343     0.40260
H418        H  0.10877141  0.13930603  0.35979019     0.35150
C419        C  0.21839327  0.19845111  0.30154162    -0.26580
C420        C  0.21137965  0.20565475  0.33497926    -0.14660
C421        C  0.22150821  0.23731378  0.34623726     0.35970
C422        C  0.24021848  0.25689109  0.32597842    -0.26030
C423        C  0.24708849  0.24874770  0.29300230    -0.15270
C424        C  0.23138947  0.22124352  0.28001623     0.37060
N425        N  0.23006778  0.21525155  0.24507582    -0.89520
H426        H  0.21244365  0.17608185  0.29019512     0.18170
H427        H  0.24713260  0.28014986  0.33596164     0.18160
N428        N  0.20925033  0.25327447  0.37523461    -0.88550
H429        H  0.20548081  0.21388679  0.23818419     0.35540
H430        H  0.24077963  0.19279428  0.24019229     0.40640
H431        H  0.18396447  0.25118614  0.37756211     0.40260
H432        H  0.22226338  0.24643443  0.39619468     0.35150
C433        C  0.31425756  0.21822156  0.14962858    -0.26580
C434        C  0.34215137  0.19834543  0.15260155    -0.14660
C435        C  0.35606198  0.18745949  0.12218795     0.35970
C436        C  0.34372938  0.19908086  0.09132819    -0.26030
C437        C  0.31493651  0.21778178  0.09032318    -0.15270
C438        C  0.29887969  0.22495005  0.11968131     0.37060
N439        N  0.26631311  0.23835293  0.11874775    -0.89520
H440        H  0.30123386  0.22470058  0.17094725     0.18170
H441        H  0.35582530  0.19255115  0.06836757     0.18160
N442        N  0.38255198  0.16485466  0.12250226    -0.88550
H443        H  0.25587626  0.23846875  0.14217901     0.35540
H444        H  0.25147937  0.22199426  0.10603228     0.40640
H445        H  0.40224530  0.17520852  0.10980006     0.40260
H446        H  0.37521066  0.14434905  0.10936482     0.35150
C447        C  0.29568104  0.11044961  0.19623394    -0.26580
C448        C  0.31574646  0.08925945  0.21351286    -0.14660
C449        C  0.34992236  0.09476279  0.21276292     0.35970
C450        C  0.36197408  0.12385733  0.19892175    -0.26030
C451        C  0.34064982  0.14922740  0.18939625    -0.15270
C452        C  0.30696552  0.14000198  0.18480663     0.37060
N453        N  0.28196244  0.16018378  0.17150449    -0.89520
H454        H  0.26965451  0.10572085  0.19448667     0.18170
H455        H  0.38814961  0.12727451  0.19817787     0.18160
N456        N  0.37303871  0.07154096  0.22509149    -0.88550
H457        H  0.27850653  0.18045552  0.18635753     0.35540
H458        H  0.28633943  0.16467255  0.14643168     0.40640
H459        H  0.36170757  0.04987886  0.23168487     0.40260
H460        H  0.38367669  0.08118832  0.24646221     0.35150
C461        C  0.34097057  0.24035504  0.21499350    -0.26580
C462        C  0.33603900  0.20633154  0.21583965    -0.14660
C463        C  0.31768206  0.19426340  0.24308787     0.35970
C464        C  0.30056773  0.21569414  0.26312780    -0.26030
C465        C  0.29735596  0.24883950  0.25527954    -0.15270
C466        C  0.32168565  0.26169060  0.23399439     0.37060
N467        N  0.32443909  0.29599162  0.22894637    -0.89520
H468        H  0.35756116  0.25050133  0.19681408     0.18170
H469        H  0.28904586  0.20528707  0.28472844     0.18160
N470        N  0.31641212  0.16070352  0.25181469    -0.88550
H471        H  0.34051190  0.30106272  0.20942709     0.35540
H472        H  0.33529789  0.30565688  0.25006198     0.40640
H473        H  0.32477946  0.15800446  0.27616963     0.40260
H474        H  0.29190480  0.15351666  0.25168112     0.35150
C475        C  0.14094170  0.31285353  0.19044657    -0.26580
C476        C  0.14978006  0.34600956  0.19477829    -0.14660
C477        C  0.12629119  0.36448785  0.21392581     0.35970
C478        C  0.09788935  0.34969901  0.22712946    -0.26030
C479        C  0.09060005  0.31694899  0.22244779    -0.15270
C480        C  0.11234848  0.29857726  0.20300313     0.37060
N481        N  0.10676256  0.26462229  0.19774356    -0.89520
H482        H  0.15812438  0.29655401  0.17878773     0.18170
H483        H  0.08148922  0.36418154  0.24216180     0.18160
N484        N  0.13004295  0.39757741  0.22303843    -0.88550
H485        H  0.12676846  0.25372887  0.18606961     0.35540
H486        H  0.08729338  0.26256663  0.18111061     0.40640
H487        H  0.12686311  0.41244394  0.20242175     0.40260
H488        H  0.15163719  0.40132656  0.23615328     0.35150
C489        C  0.17707891  0.32798759  0.12657472    -0.26580
C490        C  0.19506537  0.34999390  0.14635765    -0.14660
C491        C  0.22451018  0.36149809  0.13076983     0.35970
C492        C  0.23901098  0.34416737  0.10427792    -0.26030
C493        C  0.22378618  0.31745351  0.08965121    -0.15270
C494        C  0.19135473  0.31053601  0.09995921     0.37060
N495        N  0.17276117  0.28568609  0.08374486    -0.89520
H496        H  0.15173435  0.32343581  0.13181685     0.18170
H497        H  0.26232737  0.35218992  0.09454288     0.18160
N498        N  0.23833496  0.39227716  0.13930495    -0.88550
H499        H  0.14866516  0.28539646  0.09242598     0.35540
H500        H  0.18282972  0.26348049  0.09078871     0.40640
H501        H  0.22226298  0.41000275  0.13060407     0.40260
H502        H  0.26049129  0.39619204  0.12697380     0.35150
C503        C  0.22032426  0.30610972  0.26095309    -0.26580
C504        C  0.24564282  0.28733560  0.24686618    -0.14660
C505        C  0.24517911  0.28525368  0.21162227     0.35970
C506        C  0.22483965  0.30477450  0.19247458    -0.26030
C507        C  0.20512375  0.32858260  0.20680132    -0.15270
C508        C  0.20186582  0.32781258  0.24201636     0.37060
N509        N  0.18137561  0.35038816  0.25907421    -0.89520
H510        H  0.21739504  0.30698807  0.28764261     0.18170
H511        H  0.22629291  0.30194719  0.16588864     0.18160
N512        N  0.26396936  0.26311808  0.19336333    -0.88550
H513        H  0.16447259  0.33736748  0.27326244     0.35540
H514        H  0.19593483  0.36387814  0.27524182     0.40640
H515        H  0.26453290  0.24030055  0.20407041     0.40260
H516        H  0.28563485  0.27375851  0.18520208     0.35150
C517        C  0.40928852  0.21212262  0.17680591    -0.26580
C518        C  0.38987822  0.19107972  0.19646935    -0.14660
C519        C  0.40287282  0.18293320  0.22844776     0.35970
C520        C  0.43211307  0.19656964  0.23985506    -0.26030
C521        C  0.44922736  0.21957205  0.22140227    -0.15270
C522        C  0.43851248  0.22618784  0.18870620     0.37060
N523        N  0.45656156  0.24815447  0.16794779    -0.89520
H524        H  0.40062609  0.22035573  0.15301628     0.18170
H525        H  0.44007875  0.19064901  0.26477726     0.18160
N526        N  0.38523823  0.16296703  0.25125439    -0.88550
H527        H  0.44511169  0.25110156  0.14495992     0.35540
H528        H  0.47927884  0.23754523  0.16311406     0.40640
H529        H  0.40011030  0.14337538  0.25769718     0.40260
H530        H  0.38097549  0.17635916  0.27283723     0.35150
C531        C  0.84306919  0.91956268  0.36083358    -0.26580
C532        C  0.85249766  0.89472622  0.33857685    -0.14660
C533        C  0.85575874  0.90395540  0.30454380     0.35970
C534        C  0.84322496  0.93337517  0.29340621    -0.26030
C535        C  0.82560545  0.95374047  0.31449134    -0.15270
C536        C  0.82801502  0.94824291  0.34918261     0.37060
N537        N  0.81586245  0.97089534  0.37318234    -0.89520
H538        H  0.84462880  0.91588275  0.38734001     0.18170
H539        H  0.84396645  0.93814961  0.26694881     0.18160
N540        N  0.86871972  0.88252637  0.28004076    -0.88550
H541        H  0.79549355  0.96048257  0.38467221     0.35540
H542        H  0.80836602  0.99242182  0.36202638     0.40640
H543        H  0.85067801  0.87807069  0.26226221     0.40260
H544        H  0.88838624  0.89396302  0.26830945     0.35150
C545        C  0.80281492  0.10184105  0.34593042    -0.26580
C546        C  0.81835845  0.08861283  0.31803228    -0.14660
C547        C  0.85093139  0.09803077  0.31182517     0.35970
C548        C  0.86446732  0.12406427  0.32988747    -0.26030
C549        C  0.84525707  0.14328742  0.35151084    -0.15270
C550        C  0.81649896  0.12769952  0.36358903     0.37060
N551        N  0.80361349  0.13444549  0.39589679    -0.89520
H552        H  0.77976612  0.09200753  0.35452168     0.18170
H553        H  0.88983896  0.12978786  0.32580819     0.18160
N554        N  0.87015973  0.08143454  0.28731435    -0.88550
H555        H  0.77825450  0.13672390  0.39412148     0.35540
H556        H  0.80802476  0.11424871  0.41086791     0.40640
H557        H  0.87358510  0.05773847  0.29568378     0.40260
H558        H  0.89340155  0.09175851  0.28535295     0.35150
C559        C  0.81550994  0.25405421  0.30871358    -0.26580
C560        C  0.79204217  0.24009628  0.28780363    -0.14660
C561        C  0.79208588  0.20550529  0.28544727     0.35970
C562        C  0.81198389  0.18723987  0.30642458    -0.26030
C563        C  0.83293292  0.20169654  0.32971499    -0.15270
C564        C  0.83517883  0.23622049  0.32948013     0.37060
N565        N  0.85678817  0.25477876  0.34997175    -0.89520
H566        H  0.81769650  0.28004801  0.31036900     0.18170
H567        H  0.81058599  0.16130465  0.30407524     0.18160
N568        N  0.77387686  0.18794551  0.26110069    -0.88550
H569        H  0.88063426  0.25310326  0.34108793     0.35540
H570        H  0.85485115  0.24871675  0.37498779     0.40640
H571        H  0.75878175  0.17139738  0.27338967     0.40260
H572        H  0.79037096  0.17445334  0.24690239     0.35150
C573        C  0.24326708  0.19370001  0.42932507    -0.26580
C574        C  0.22425169  0.21194043  0.45118156    -0.14660
C575        C  0.18982641  0.21280753  0.44614862     0.35970
C576        C  0.17656961  0.20066064  0.41628510    -0.26030
C577        C  0.19674050  0.18743457  0.39123562    -0.15270
C578        C  0.23044097  0.18211010  0.39953988     0.37060
N579        N  0.25287351  0.16832944  0.37602874    -0.89520
H580        H  0.26937461  0.19150385  0.43329553     0.18170
H581        H  0.15078614  0.20425764  0.41187005     0.18160
N582        N  0.16774244  0.22662620  0.47005242    -0.88550
H583        H  0.26422748  0.14842767  0.38715717     0.35540
H584        H  0.27095705  0.18543373  0.37067925     0.40640
H585        H  0.17953305  0.23054978  0.49261785     0.40260
H586        H  0.15004219  0.20916312  0.47545171     0.35150
C587        C  0.88936938  0.82487492  0.30725705    -0.26580
C588        C  0.88840806  0.84544953  0.33552222    -0.14660
C589        C  0.91912057  0.85536593  0.34859858     0.35970
C590        C  0.94834722  0.84077111  0.33679543    -0.26030
C591        C  0.94756066  0.81836459  0.31063795    -0.15270
C592        C  0.91794412  0.81121604  0.29524039     0.37060
N593        N  0.91697372  0.78977298  0.26714954    -0.89520
H594        H  0.86785048  0.82011691  0.29268387     0.18170
H595        H  0.97163854  0.84693986  0.34783458     0.18160
N596        N  0.92036840  0.87853824  0.37508713    -0.88550
H597        H  0.89326960  0.78758876  0.25778457     0.35540
H598        H  0.92337147  0.76685988  0.27581995     0.40640
H599        H  0.91318367  0.90086058  0.36539599     0.40260
H600        H  0.94441107  0.88150571  0.38327707     0.35150
C601        C  0.24360050  0.42026749  0.22582138    -0.26580
C602        C  0.22578904  0.44839443  0.22124524    -0.14660
C603        C  0.19799327  0.44752609  0.20035639     0.35970
C604        C  0.18743211  0.41748157  0.18732269    -0.26030
C605        C  0.20208276  0.38790628  0.19680097    -0.15270
C606        C  0.23395402  0.39108899  0.21207313     0.37060
N607        N  0.26031511  0.36850448  0.20771666    -0.89520
H608        H  0.26702975  0.42143314  0.23832370     0.18170
H609        H  0.16765519  0.41717102  0.16955226     0.18160
N610        N  0.18052130  0.47632423  0.19123847    -0.88550
H611        H  0.25997469  0.35077923  0.22573866     0.35540
H612        H  0.26075571  0.35833135  0.18415258     0.40640
H613        H  0.19078666  0.49674757  0.20227150     0.40260
H614        H  0.15679869  0.47423004  0.20068374     0.35150
C615        C  0.38824179  0.32858400  0.30621846    -0.26580
C616        C  0.38724976  0.34568899  0.33681865    -0.14660
C617        C  0.41807076  0.35287197  0.35132379     0.35970
C618        C  0.44706304  0.33894031  0.33800401    -0.26030
C619        C  0.44640048  0.32028084  0.30880087    -0.15270
C620        C  0.41640257  0.31555418  0.29261732     0.37060
N621        N  0.41298414  0.29756124  0.26221203    -0.89520
H622        H  0.36674554  0.32571203  0.29116503     0.18170
H623        H  0.47032569  0.34318923  0.35003105     0.18160
N624        N  0.41998181  0.37412686  0.37936397    -0.88550
H625        H  0.39849602  0.27730814  0.26724142     0.35540
H626        H  0.43509674  0.28886764  0.25319752     0.40640
H627        H  0.41413083  0.39729250  0.37090251     0.40260
H628        H  0.44399249  0.37542028  0.38809532     0.35150
C629        C  0.36373443  0.33021007  0.40627482    -0.26580
C630        C  0.34470112  0.35209139  0.38730494    -0.14660
C631        C  0.31284569  0.35931873  0.40003865     0.35970
C632        C  0.30068800  0.34356206  0.42838463    -0.26030
C633        C  0.31841508  0.31936917  0.44469740    -0.15270
C634        C  0.35095988  0.31355209  0.43413497     0.37060
N635        N  0.37079597  0.28983037  0.45073463    -0.89520
H636        H  0.38742338  0.32270062  0.39753295     0.18170
H637        H  0.27591111  0.34891626  0.43618903     0.18160
N638        N  0.29091171  0.38000597  0.38226998    -0.88550
H639        H  0.39491473  0.29077220  0.44216381     0.35540
H640        H  0.36197685  0.26706692  0.44398792     0.40640
H641        H  0.28273623  0.39806903  0.39837862     0.40260
H642        H  0.27043749  0.36632753  0.37570060     0.35150
C643        C  0.35692827  0.40150818  0.30383797    -0.26580
C644        C  0.35210717  0.39538975  0.33818839    -0.14660
C645        C  0.34381539  0.42287502  0.35789575     0.35970
C646        C  0.33024724  0.45032897  0.34225092    -0.26030
C647        C  0.32927849  0.45323897  0.30743792    -0.15270
C648        C  0.34584279  0.42971666  0.28846428     0.37060
N649        N  0.34905787  0.43196136  0.25311743    -0.89520
H650        H  0.36574272  0.38284421  0.28751054     0.18170
H651        H  0.32095652  0.46986773  0.35747220     0.18160
N652        N  0.35128654  0.42547454  0.39262480    -0.88550
H653        H  0.36248172  0.45270200  0.24733312     0.35540
H654        H  0.32582239  0.43354605  0.24251634     0.40640
H655        H  0.36540824  0.40633551  0.40126491     0.40260
H656        H  0.32965763  0.42694094  0.40629249     0.35150
C657        C  0.32809786  0.30462731  0.33774864    -0.26580
C658        C  0.32618966  0.33841543  0.33270278    -0.14660
C659        C  0.30103329  0.34979576  0.31157344     0.35970
C660        C  0.28403388  0.32794310  0.29187673    -0.26030
C661        C  0.28856225  0.29424090  0.29402568    -0.15270
C662        C  0.31030755  0.28286533  0.31883132     0.37060
N663        N  0.31461753  0.24904392  0.32512703    -0.89520
H664        H  0.34580579  0.29465898  0.35486509     0.18170
H665        H  0.26685428  0.33863188  0.27548692     0.18160
N666        N  0.29094906  0.38294601  0.31061184    -0.88550
H667        H  0.30873454  0.24447698  0.34996542     0.35540
H668        H  0.33928247  0.24333314  0.32156314     0.40640
H669        H  0.26639615  0.38412864  0.31775681     0.40260
H670        H  0.29205139  0.39077783  0.28595213     0.35150
C671        C  0.34888103  0.61959252  0.35786277    -0.26580
C672        C  0.35429450  0.64762701  0.33865690    -0.14660
C673        C  0.35479246  0.64327290  0.30359528     0.35970
C674        C  0.34096893  0.61561961  0.28939673    -0.26030
C675        C  0.32823562  0.59083076  0.30915934    -0.15270
C676        C  0.33493916  0.59154258  0.34377062     0.37060
N677        N  0.32772691  0.56477881  0.36540256    -0.89520
H678        H  0.35241403  0.62032755  0.38447707     0.18170
H679        H  0.33896149  0.61430143  0.26260893     0.18160
N680        N  0.36943056  0.66677388  0.28216426    -0.88550
H681        H  0.34958768  0.55796917  0.37687339     0.35540
H682        H  0.32037223  0.54451737  0.35201017     0.40640
H683        H  0.38877027  0.65563743  0.26961102     0.40260
H684        H  0.35230704  0.67369986  0.26437851     0.35150
C685        C  0.30322788  0.69886194  0.33018033    -0.26580
C686        C  0.33679962  0.70539913  0.33255139    -0.14660
C687        C  0.34819871  0.73134619  0.31190150     0.35970
C688        C  0.32599114  0.75222840  0.29694422    -0.26030
C689        C  0.29262873  0.74467359  0.29459390    -0.15270
C690        C  0.28105712  0.71903282  0.31431748     0.37060
N691        N  0.24698002  0.71184705  0.31686623    -0.89520
H692        H  0.29406765  0.67593981  0.33718426     0.18170
H693        H  0.33622552  0.77316264  0.28481957     0.18160
N694        N  0.38135963  0.73431940  0.30091123    -0.88550
H695        H  0.24034787  0.71312168  0.34190395     0.35540
H696        H  0.24293454  0.68817417  0.30884362     0.40640
H697        H  0.38905205  0.75805008  0.30527999     0.40260
H698        H  0.38212435  0.73080393  0.27523010     0.35150
C699        C  0.18720546  0.64137344  0.22751516    -0.26580
C700        C  0.18884793  0.64858922  0.19304604    -0.14660
C701        C  0.19929010  0.62276710  0.17213397     0.35970
C702        C  0.21505133  0.59546457  0.18639483    -0.26030
C703        C  0.21818188  0.59191454  0.22101533    -0.15270
C704        C  0.20261565  0.61452987  0.24165591     0.37060
N705        N  0.20480733  0.61183747  0.27723748    -0.89520
H706        H  0.17803167  0.65869787  0.24482115     0.18170
H707        H  0.22511990  0.57693389  0.17039305     0.18160
N708        N  0.19434909  0.62399480  0.13686384    -0.88550
H709        H  0.19141898  0.63006174  0.28901198     0.35540
H710        H  0.22925444  0.61551958  0.28378680     0.40640
H711        H  0.16924247  0.62329900  0.13246609     0.40260
H712        H  0.20423700  0.60353915  0.12541126     0.35150
C713        C  0.19175762  0.72900354  0.09568793    -0.26580
C714        C  0.22375116  0.72058449  0.08639540    -0.14660
C715        C  0.23996629  0.69684694  0.10542966     0.35970
C716        C  0.22513311  0.68465587  0.13440611    -0.26030
C717        C  0.19338332  0.69379977  0.14530610    -0.15270
C718        C  0.17653199  0.71638035  0.12444274     0.37060
N719        N  0.14497827  0.72887948  0.13275458    -0.89520
H720        H  0.17864115  0.74690299  0.08123600     0.18170
H721        H  0.23958467  0.66873249  0.14982680     0.18160
N722        N  0.27223377  0.68614640  0.09643899    -0.88550
H723        H  0.12904715  0.72333689  0.11331052     0.35540
H724        H  0.14637126  0.75406718  0.13415670     0.40640
H725        H  0.27010429  0.67296400  0.07443058     0.40260
H726        H  0.28152476  0.67006505  0.11411572     0.35150
C727        C  0.14767148  0.70756959  0.22920697    -0.26580
C728        C  0.14995717  0.69540469  0.19631052    -0.14660
C729        C  0.11969803  0.68805112  0.18069277     0.35970
C730        C  0.09020989  0.70094809  0.19390576    -0.26030
C731        C  0.08967252  0.71468360  0.22579416    -0.15270
C732        C  0.11808947  0.71437694  0.24470979     0.37060
N733        N  0.11687350  0.72154704  0.27964460    -0.89520
H734        H  0.16908264  0.71023085  0.24427906     0.18170
H735        H  0.06760201  0.69905518  0.18009823     0.18160
N736        N  0.11898249  0.66833397  0.15145053    -0.88550
H737        H  0.13954759  0.71728525  0.29036121     0.35540
H738        H  0.10196865  0.70414091  0.29082745     0.40640
H739        H  0.12507386  0.64492721  0.15893039     0.40260
H740        H  0.09519557  0.66698976  0.14211243     0.35150
C741        C  0.23826694  0.69118041  0.21601051    -0.26580
C742        C  0.21104262  0.70590506  0.20106945    -0.14660
C743        C  0.20929988  0.74009169  0.20278097     0.35970
C744        C  0.23028655  0.75705387  0.22371241    -0.26030
C745        C  0.25321099  0.74123871  0.24422424    -0.15270
C746        C  0.25903117  0.70755395  0.23743649     0.37060
N747        N  0.28641234  0.68867544  0.24858693    -0.89520
H748        H  0.24418288  0.66618944  0.21098051     0.18170
H749        H  0.22687417  0.78295822  0.22577687     0.18160
N750        N  0.18485515  0.75775408  0.18506698    -0.88550
H751        H  0.27863787  0.67169680  0.26611805     0.35540
H752        H  0.30605252  0.70172735  0.25729138     0.40640
H753        H  0.19664619  0.77458480  0.16980849     0.40260
H754        H  0.17060166  0.77047353  0.20221824     0.35150
C755        C  0.36536505  0.69367737  0.41814891    -0.26580
C756        C  0.34456880  0.68322979  0.39202349    -0.14660
C757        C  0.31063260  0.68033596  0.40182164     0.35970
C758        C  0.29870965  0.69912910  0.42786112    -0.26030
C759        C  0.31923295  0.71606541  0.44917743    -0.15270
C760        C  0.35333463  0.71077618  0.44603980     0.37060
N761        N  0.37649363  0.72214354  0.47015129    -0.89520
H762        H  0.39157247  0.69108150  0.41597320     0.18170
H763        H  0.27257064  0.69902056  0.43243094     0.18160
N764        N  0.28824789  0.65551002  0.39136435    -0.88550
H765        H  0.38894274  0.70195894  0.47935985     0.35540
H766        H  0.36486079  0.73237291  0.49061934     0.40640
H767        H  0.29705241  0.63984731  0.37363797     0.40260
H768        H  0.26671737  0.66613044  0.38254474     0.35150
C769        C  0.35115285  0.68711631  0.62575347    -0.26580
C770        C  0.33913456  0.69912975  0.65632053    -0.14660
C771        C  0.31081771  0.71980399  0.65434865     0.35970
C772        C  0.30100060  0.73253783  0.62400624    -0.26030
C773        C  0.31591214  0.72353325  0.59454665    -0.15270
C774        C  0.34069532  0.69974985  0.59498596     0.37060
N775        N  0.35541370  0.68765325  0.56506528    -0.89520
H776        H  0.36997039  0.66866675  0.62590943     0.18170
H777        H  0.28030983  0.74899917  0.62341808     0.18160
N778        N  0.28988005  0.72641701  0.68212653    -0.88550
H779        H  0.38015654  0.69393351  0.56556239     0.35540
H780        H  0.34544443  0.69867092  0.54405568     0.40640
H781        H  0.28818550  0.75148482  0.68503211     0.40260
H782        H  0.26645159  0.71776955  0.67681514     0.35150
C783        C  0.32217291  0.68852445  0.74557789    -0.26580
C784        C  0.33867617  0.70432564  0.71939545    -0.14660
C785        C  0.34444135  0.73800566  0.72364486     0.35970
C786        C  0.32729240  0.75448149  0.74826225    -0.26030
C787        C  0.30163556  0.73993400  0.76589164    -0.15270
C788        C  0.30524306  0.70571934  0.76976174     0.37060
N789        N  0.29931296  0.68852481  0.80023872    -0.89520
H790        H  0.32393867  0.66265797  0.74893051     0.18170
H791        H  0.33527756  0.77831028  0.75466494     0.18160
N792        N  0.36688785  0.75564737  0.70292710    -0.88550
H793        H  0.27970011  0.67262929  0.79738494     0.35540
H794        H  0.29631809  0.70353486  0.82070110     0.40640
H795        H  0.35663371  0.75781960  0.67936389     0.40260
H796        H  0.36983306  0.77933807  0.71138293     0.35150
C797        C  0.30692505  0.64424786  0.68909402    -0.26580
C798        C  0.34111343  0.64921609  0.69102287    -0.14660
C799        C  0.36060948  0.62155738  0.69826521     0.35970
C800        C  0.34555448  0.59353950  0.71157143    -0.26030
C801        C  0.31140703  0.59124798  0.71444460    -0.15270
C802        C  0.29194808  0.61623501  0.70126888     0.37060
N803        N  0.25683531  0.61426480  0.70255325    -0.89520
H804        H  0.29117422  0.66381303  0.68165880     0.18170
H805        H  0.36048559  0.57335104  0.71957631     0.18160
N806        N  0.39514851  0.62150818  0.69189950    -0.88550
H807        H  0.24609924  0.63444067  0.69131978     0.35540
H808        H  0.24988648  0.61488196  0.72754076     0.40640
H809        H  0.39839428  0.62414203  0.66629604     0.40260
H810        H  0.40551281  0.59929645  0.69845785     0.35150
C811        C  0.36382806  0.32570878  0.62791467    -0.26580
C812        C  0.34525427  0.34543923  0.64965558    -0.14660
C813        C  0.31198701  0.35125964  0.63961840     0.35970
C814        C  0.30029028  0.33968661  0.60890702    -0.26030
C815        C  0.31922495  0.31975063  0.58841751    -0.15270
C816        C  0.35198190  0.31402717  0.59740250     0.37060
N817        N  0.37248956  0.29390240  0.57703921    -0.89520
H818        H  0.38487117  0.31335674  0.63721027     0.18170
H819        H  0.27487643  0.34365793  0.60258726     0.18160
N820        N  0.28875677  0.36577504  0.66196629    -0.88550
H821        H  0.39569307  0.29127960  0.58755127     0.35540
H822        H  0.37590693  0.30592780  0.55445446     0.40640
H823        H  0.28473607  0.34956915  0.68147318     0.40260
H824        H  0.26611084  0.36930699  0.65053036     0.35150
C825        C  0.32986198  0.38999791  0.73182317    -0.26580
C826        C  0.34128032  0.38533673  0.69883293    -0.14660
C827        C  0.33940555  0.41347781  0.67798090     0.35970
C828        C  0.32234299  0.44162912  0.68888721    -0.26030
C829        C  0.31268298  0.44516241  0.72215065    -0.15270
C830        C  0.32029312  0.42005957  0.74427306     0.37060
N831        N  0.32064761  0.42553282  0.77962406    -0.89520
H832        H  0.32988539  0.37167557  0.75008824     0.18170
H833        H  0.31862427  0.46168980  0.67199987     0.18160
N834        N  0.35420658  0.41341543  0.64565682    -0.88550
H835        H  0.32801830  0.40488376  0.79261165     0.35540
H836        H  0.29730138  0.43125578  0.78786177     0.40640
H837        H  0.37946062  0.41308007  0.64930235     0.40260
H838        H  0.34908090  0.43492797  0.63304366     0.35150
C839        C  0.30793505  0.27412636  0.71609057    -0.26580
C840        C  0.30176714  0.28200217  0.74952916    -0.14660
C841        C  0.32589683  0.30304969  0.76289026     0.35970
C842        C  0.34790761  0.31924502  0.74220380    -0.26030
C843        C  0.34330892  0.32135118  0.70758667    -0.15270
C844        C  0.32627683  0.29366082  0.69484653     0.37060
N845        N  0.32895469  0.28244381  0.66147950    -0.89520
H846        H  0.29903004  0.25171683  0.70574110     0.18170
H847        H  0.36548149  0.33358304  0.75509068     0.18160
N848        N  0.33015980  0.30856985  0.79729689    -0.88550
H849        H  0.30544153  0.28057673  0.65148643     0.35540
H850        H  0.33943655  0.25937460  0.66163130     0.40640
H851        H  0.33295160  0.28626427  0.80881691     0.40260
H852        H  0.31048856  0.32220718  0.80581876     0.35150
C853        C  0.19415349  0.21472973  0.59094624    -0.26580
C854        C  0.22848992  0.21528544  0.58915648    -0.14660
C855        C  0.24645551  0.19879665  0.61391749     0.35970
C856        C  0.23029616  0.18741046  0.64212977    -0.26030
C857        C  0.19628993  0.19228284  0.64698073    -0.15270
C858        C  0.17785021  0.20201224  0.61889921     0.37060
N859        N  0.14305909  0.19841455  0.61801460    -0.89520
H860        H  0.17985668  0.22465403  0.57072490     0.18170
H861        H  0.24504465  0.17793168  0.66225536     0.18160
N862        N  0.28138427  0.19634493  0.61320620    -0.88550
H863        H  0.13265470  0.22080540  0.61226926     0.35540
H864        H  0.13738284  0.18263670  0.59862837     0.40640
H865        H  0.29137183  0.21957165  0.61196140     0.40260
H866        H  0.28831270  0.18313844  0.59225953     0.35150
C867        C  0.12230522  0.17940739  0.70016070    -0.26580
C868        C  0.14675794  0.20034925  0.68762144    -0.14660
C869        C  0.13758298  0.23338567  0.68352516     0.35970
C870        C  0.10857667  0.24510658  0.69705847    -0.26030
C871        C  0.08729893  0.22513579  0.71459080    -0.15270
C872        C  0.09291580  0.19129901  0.71392343     0.37060
N873        N  0.06965347  0.16833218  0.72664902    -0.89520
H874        H  0.12606107  0.15355375  0.70035338     0.18170
H875        H  0.10384941  0.27085709  0.69544833     0.18160
N876        N  0.15794351  0.25600605  0.66662068    -0.88550
H877        H  0.06402024  0.15239607  0.70737327     0.35540
H878        H  0.04752767  0.17948244  0.73249291     0.40640
H879        H  0.16313029  0.27484115  0.68309456     0.40260
H880        H  0.14472633  0.26592643  0.64688778     0.35150
C881        C  0.18311590  0.14387881  0.72916894    -0.26580
C882        C  0.18913879  0.15277094  0.69566618    -0.14660
C883        C  0.20144583  0.12696991  0.67549896     0.35970
C884        C  0.21617838  0.09966415  0.69029119    -0.26030
C885        C  0.21582778  0.09494591  0.72475699    -0.15270
C886        C  0.19729967  0.11652765  0.74417276     0.37060
N887        N  0.19328237  0.11116217  0.77923291    -0.89520
H888        H  0.16650251  0.15748521  0.74419085     0.18170
H889        H  0.22727036  0.08154479  0.67446580     0.18160
N890        N  0.19689600  0.12665181  0.64023977    -0.88550
H891        H  0.17817884  0.12880280  0.78974290     0.35540
H892        H  0.21620501  0.11399261  0.79029601     0.40640
H893        H  0.18236479  0.10671773  0.63429273     0.40260
H894        H  0.21967792  0.12326071  0.62894484     0.35150
C895        C  0.19904643  0.21322364  0.74006264    -0.26580
C896        C  0.20362163  0.21324090  0.70541006    -0.14660
C897        C  0.22332359  0.23971933  0.69380050     0.35970
C898        C  0.24171237  0.25733185  0.71631253    -0.26030
C899        C  0.24754921  0.24666577  0.74890838    -0.15270
C900        C  0.22103023  0.22822917  0.76179799     0.37060
N901        N  0.21244370  0.22884437  0.79612592    -0.89520
H902        H  0.17676345  0.20440174  0.75074277     0.18170
H903        H  0.25096626  0.28023252  0.70755125     0.18160
N904        N  0.22347154  0.25152289  0.66026678    -0.88550
H905        H  0.21029648  0.20495219  0.80439415     0.35540
H906        H  0.18958987  0.23994174  0.79861942     0.40640
H907        H  0.24771926  0.25158701  0.65200856     0.40260
H908        H  0.21619481  0.27575874  0.66019945     0.35150
C909        C  0.40536443  0.36433103  0.72583447    -0.26580
C910        C  0.39512546  0.35451895  0.69381094    -0.14660
C911        C  0.42132882  0.34208635  0.67421126     0.35970
C912        C  0.44697837  0.32516076  0.69005005    -0.26030
C913        C  0.45124742  0.32676895  0.72466681    -0.15270
C914        C  0.43178657  0.34944743  0.74199893     0.37060
N915        N  0.43654929  0.35645377  0.77645134    -0.89520
H916        H  0.39036528  0.38005236  0.74076486     0.18170
H917        H  0.46517519  0.31296691  0.67502676     0.18160
N918        N  0.42804929  0.35440447  0.64149480    -0.88550
H919        H  0.45989917  0.36618694  0.77958678     0.35540
H920        H  0.43447580  0.33500906  0.79005289     0.40640
H921        H  0.40908515  0.36903757  0.63293325     0.40260
H922        H  0.43178936  0.33527986  0.62499756     0.35150
C923        C  0.63979468  0.31365249  0.68529334    -0.26580
C924        C  0.64746765  0.34651615  0.69270091    -0.14660
C925        C  0.62274801  0.36434985  0.70967030     0.35970
C926        C  0.59517590  0.34823741  0.72291124    -0.26030
C927        C  0.59041976  0.31482151  0.71877839    -0.15270
C928        C  0.61241087  0.29786744  0.69818254     0.37060
N929        N  0.60956178  0.26383948  0.69227637    -0.89520
H930        H  0.65785898  0.29851909  0.67321722     0.18170
H931        H  0.57765945  0.36199991  0.73733346     0.18160
N932        N  0.62529779  0.39848920  0.71448645    -0.88550
H933        H  0.58774553  0.25943407  0.67963384     0.35540
H934        H  0.60932092  0.25170693  0.71506687     0.40640
H935        H  0.62468360  0.40312389  0.73998753     0.40260
H936        H  0.60487389  0.40945547  0.70369596     0.35150
C937        C  0.75616352  0.31168108  0.73541666    -0.26580
C938        C  0.73965666  0.28775492  0.75378748    -0.14660
C939        C  0.70493127  0.29096008  0.75520978     0.35970
C940        C  0.68933003  0.31357189  0.73532438    -0.26030
C941        C  0.70538045  0.33287855  0.71121933    -0.15270
C942        C  0.73997404  0.33380590  0.71486901     0.37060
N943        N  0.75913637  0.35924309  0.70135333    -0.89520
H944        H  0.78258482  0.31290240  0.73632445     0.18170
H945        H  0.66396376  0.31717914  0.74150535     0.18160
N946        N  0.68456176  0.27402042  0.77846176    -0.88550
H947        H  0.77842568  0.34880887  0.68804364     0.35540
H948        H  0.76919972  0.37246920  0.72091084     0.40640
H949        H  0.67259238  0.29082118  0.79359716     0.40260
H950        H  0.66655560  0.26160149  0.76520456     0.35150
C951        C  0.69863303  0.39456405  0.73758420    -0.26580
C952        C  0.69106145  0.39169482  0.70335702    -0.14660
C953        C  0.68958602  0.42105724  0.68493954     0.35970
C954        C  0.70444308  0.44921982  0.69811226    -0.26030
C955        C  0.71724194  0.44952577  0.73049361    -0.15270
C956        C  0.71242534  0.42246307  0.75097385     0.37060
N957        N  0.72346381  0.42258017  0.78488645    -0.89520
H958        H  0.69506395  0.37443078  0.75426211     0.18170
H959        H  0.70562262  0.47105760  0.68328678     0.18160
N960        N  0.67055254  0.42321022  0.65498959    -0.88550
H961        H  0.72121189  0.39963596  0.79557105     0.35540
H962        H  0.70784914  0.43772919  0.79829329     0.40640
H963        H  0.68303548  0.41225197  0.63552306     0.40260
H964        H  0.66774498  0.44739004  0.64796155     0.35150
C965        C  0.70740831  0.59506440  0.69912283    -0.26580
C966        C  0.72519341  0.59522202  0.72883628    -0.14660
C967        C  0.72947252  0.62450917  0.74568850     0.35970
C968        C  0.71749884  0.65284863  0.73196022    -0.26030
C969        C  0.70112201  0.65435310  0.70081716    -0.15270
C970        C  0.69413790  0.62377759  0.68564214     0.37060
N971        N  0.67335138  0.62039769  0.65720059    -0.89520
H972        H  0.70308921  0.57228063  0.68664356     0.18170
H973        H  0.72037574  0.67384327  0.74756346     0.18160
N974        N  0.74622575  0.62696973  0.77689308    -0.88550
H975        H  0.68740023  0.61105760  0.63774639     0.35540
H976        H  0.66444362  0.64255580  0.64935629     0.40640
H977        H  0.75828986  0.60587728  0.78371177     0.40260
H978        H  0.72859992  0.63167697  0.79508240     0.35150
C979        C  0.71404662  0.75570052  0.75119315    -0.26580
C980        C  0.74835527  0.75507943  0.74774551    -0.14660
C981        C  0.76154655  0.73480475  0.72276935     0.35970
C982        C  0.74112753  0.71540086  0.70373974    -0.26030
C983        C  0.70681642  0.71520638  0.70782614    -0.15270
C984        C  0.69342471  0.73845938  0.73001415     0.37060
N985        N  0.65948616  0.74680408  0.73023106    -0.89520
H986        H  0.70216695  0.77014461  0.76990066     0.18170
H987        H  0.75258480  0.69896166  0.68636928     0.18160
N988        N  0.79594575  0.73369155  0.71645310    -0.88550
H989        H  0.65088818  0.74469354  0.75459581     0.35540
H990        H  0.65734225  0.77114967  0.72356268     0.40640
H991        H  0.79998347  0.74017342  0.69168233     0.40260
H992        H  0.80391845  0.70987875  0.71973175     0.35150
C993        C  0.84877441  0.81015417  0.43247282    -0.26580
C994        C  0.81685561  0.81796114  0.44212698    -0.14660
C995        C  0.80136535  0.84424521  0.42613619     0.35970
C996        C  0.81719437  0.86020472  0.39983411    -0.26030
C997        C  0.84796584  0.85044923  0.38702585    -0.15270
C998        C  0.86430264  0.82544599  0.40541230     0.37060
N999        N  0.89543323  0.81294282  0.39563374    -0.89520
H1000       H  0.86149465  0.79066895  0.44500768     0.18170
H1001       H  0.80306768  0.87799547  0.38672313     0.18160
N1002       N  0.76864557  0.85367836  0.43503878    -0.88550
H1003       H  0.89299321  0.78828624  0.39053377     0.35540
H1004       H  0.91155273  0.81546850  0.41557370     0.40640
H1005       H  0.75295075  0.83529340  0.42716239     0.40260
H1006       H  0.76150906  0.87453337  0.42226107     0.35150
C1007       C  0.70346429  0.73975893  0.60919775    -0.26580
C1008       C  0.72610970  0.72121623  0.59136888    -0.14660
C1009       C  0.73314003  0.68970443  0.60276141     0.35970
C1010       C  0.71864312  0.67828759  0.63246968    -0.26030
C1011       C  0.69659493  0.69730423  0.65147616    -0.15270
C1012       C  0.68947834  0.72881560  0.63887202     0.37060
N1013       N  0.66985024  0.75112900  0.65740289    -0.89520
H1014       H  0.69781312  0.76415414  0.60121170     0.18170
H1015       H  0.72695504  0.65528247  0.64169592     0.18160
N1016       N  0.75565898  0.66961212  0.58473675    -0.88550
H1017       H  0.65058264  0.75890408  0.64234645     0.35540
H1018       H  0.68419298  0.77133110  0.66291164     0.40640
H1019       H  0.74515016  0.66464541  0.56166419     0.40260
H1020       H  0.75871852  0.64734606  0.59664663     0.35150
C1021       C  0.78673415  0.83035488  0.28891535    -0.26580
C1022       C  0.78847352  0.79662716  0.29240758    -0.14660
C1023       C  0.81049123  0.78385379  0.31612530     0.35970
C1024       C  0.82805868  0.80462716  0.33629360    -0.26030
C1025       C  0.82657167  0.83858470  0.33241730    -0.15270
C1026       C  0.80159497  0.85092783  0.31123899     0.37060
N1027       N  0.78610653  0.88186178  0.31463464    -0.89520
H1028       H  0.77188582  0.84176020  0.27021399     0.18170
H1029       H  0.84562119  0.79374746  0.35287269     0.18160
N1030       N  0.81475314  0.74972367  0.32043748    -0.88550
H1031       H  0.79094023  0.89618315  0.29386589     0.35540
H1032       H  0.79106746  0.89347733  0.33677936     0.40640
H1033       H  0.80940876  0.74374550  0.34507890     0.40260
H1034       H  0.83932507  0.74417228  0.31604283     0.35150
C1035       C  0.73080042  0.68155472  0.39593233    -0.26580
C1036       C  0.69711499  0.68419653  0.38904717    -0.14660
C1037       C  0.67698712  0.69285631  0.41655092     0.35970
C1038       C  0.69116390  0.70946223  0.44368500    -0.26030
C1039       C  0.72532253  0.71323724  0.44605690    -0.15270
C1040       C  0.74513027  0.69676327  0.42281444     0.37060
N1041       N  0.78018587  0.69713941  0.42383719    -0.89520
H1042       H  0.74740475  0.67115774  0.37855070     0.18170
H1043       H  0.67560197  0.71847577  0.46338537     0.18160
N1044       N  0.64356946  0.68259300  0.41940390    -0.88550
H1045       H  0.78821200  0.68476895  0.44492851     0.35540
H1046       H  0.78836113  0.72107799  0.42418008     0.40640
H1047       H  0.63716565  0.66681194  0.40033008     0.40260
H1048       H  0.62822097  0.70274289  0.41890469     0.35150
C1049       C  0.72069822  0.73527678  0.34685862    -0.26580
C1050       C  0.70407062  0.70976431  0.33117229    -0.14660
C1051       C  0.70296915  0.71016110  0.29589793     0.35970
C1052       C  0.72267999  0.73163382  0.27819047    -0.26030
C1053       C  0.74299887  0.75418090  0.29426648    -0.15270
C1054       C  0.73855864  0.75807937  0.32914749     0.37060
N1055       N  0.74980465  0.78589487  0.34699750    -0.89520
H1056       H  0.71894009  0.73897393  0.37330795     0.18170
H1057       H  0.72328731  0.72961742  0.25138201     0.18160
N1058       N  0.68429721  0.68682857  0.27782240    -0.88550
H1059       H  0.76440444  0.77805783  0.36673117     0.35540
H1060       H  0.72952926  0.79759904  0.35729828     0.40640
H1061       H  0.70024186  0.67347971  0.26284950     0.40260
H1062       H  0.66814493  0.69928897  0.26229869     0.35150
C1063       C  0.74279643  0.61439737  0.31504931    -0.26580
C1064       C  0.72355993  0.58727252  0.31691730    -0.14660
C1065       C  0.69230857  0.58960181  0.33197194     0.35970
C1066       C  0.68148338  0.61996552  0.34431885    -0.26030
C1067       C  0.69935461  0.64881998  0.33856799    -0.15270
C1068       C  0.73153915  0.64447440  0.32471925     0.37060
N1069       N  0.75378227  0.67034476  0.31898999    -0.89520
H1070       H  0.76696000  0.61278390  0.30388928     0.18170
H1071       H  0.65845234  0.62109029  0.35754206     0.18160
N1072       N  0.67156010  0.56190050  0.33603719    -0.88550
H1073       H  0.75776984  0.66972579  0.29350035     0.35540
H1074       H  0.77603941  0.66528221  0.33067077     0.40640
H1075       H  0.68273456  0.54107906  0.32675488     0.40260
H1076       H  0.65055778  0.56584442  0.32184506     0.35150
C1077       C  0.59728217  0.32257176  0.34598688    -0.26580
C1078       C  0.59355094  0.32111947  0.31138425    -0.14660
C1079       C  0.61622140  0.33800464  0.29150181     0.35970
C1080       C  0.64350964  0.35239979  0.30638401    -0.26030
C1081       C  0.65162097  0.34753903  0.34011254    -0.15270
C1082       C  0.62483142  0.33759844  0.36058156     0.37060
N1083       N  0.62468278  0.34393461  0.39564021    -0.89520
H1084       H  0.57828060  0.31262860  0.36172564     0.18170
H1085       H  0.65770469  0.36843655  0.29125848     0.18160
N1086       N  0.61211859  0.34000040  0.25609065    -0.88550
H1087       H  0.60311496  0.33557407  0.40663357     0.35540
H1088       H  0.62499849  0.36901504  0.39872800     0.40640
H1089       H  0.61499759  0.31667227  0.24655761     0.40260
H1090       H  0.63058770  0.35397881  0.24529285     0.35150
C1091       C  0.73475003  0.39323712  0.34487270    -0.26580
C1092       C  0.70059330  0.38797083  0.34529587    -0.14660
C1093       C  0.68046896  0.41456553  0.33604517     0.35970
C1094       C  0.69447603  0.44193680  0.32068453    -0.26030
C1095       C  0.72842071  0.44468272  0.31644182    -0.15270
C1096       C  0.74870978  0.42051283  0.33028031     0.37060
N1097       N  0.78366319  0.42181300  0.32826877    -0.89520
H1098       H  0.75117273  0.37482232  0.35407905     0.18170
H1099       H  0.67866241  0.46128609  0.31221863     0.18160
N1100       N  0.64616151  0.41474727  0.34312697    -0.88550
H1101       H  0.79195164  0.44170986  0.34176727     0.35540
H1102       H  0.79053387  0.42426749  0.30338358     0.40640
H1103       H  0.63357717  0.41874452  0.32092306     0.40260
H1104       H  0.64129754  0.43427220  0.35881778     0.35150
C1105       C  0.75070522  0.28555385  0.32475650    -0.26580
C1106       C  0.74971955  0.28715161  0.29004759    -0.14660
C1107       C  0.73068497  0.31219406  0.27586323     0.35970
C1108       C  0.71339418  0.33356288  0.29620846    -0.26030
C1109       C  0.71176667  0.33011028  0.33108669    -0.15270
C1110       C  0.73589316  0.30879480  0.34464692     0.37060
N1111       N  0.74997926  0.31350624  0.37683928    -0.89520
H1112       H  0.76512595  0.26793893  0.33750202     0.18170
H1113       H  0.70403432  0.35462429  0.28407654     0.18160
N1114       N  0.73002123  0.31708575  0.24063497    -0.88550
H1115       H  0.75000285  0.29135200  0.38939233     0.35540
H1116       H  0.77441813  0.32026562  0.37368957     0.40640
H1117       H  0.73871424  0.34030390  0.23547275     0.40260
H1118       H  0.70570981  0.31581031  0.23278185     0.35150
C1119       C  0.63613812  0.17959576  0.22690120    -0.26580
C1120       C  0.64508135  0.18684521  0.19384353    -0.14660
C1121       C  0.61847050  0.19783669  0.17380017     0.35970
C1122       C  0.59246641  0.21458492  0.18896901    -0.26030
C1123       C  0.58908827  0.21506978  0.22367945    -0.15270
C1124       C  0.60946017  0.19449986  0.24245954     0.37060
N1125       N  0.60394036  0.18951075  0.27735652    -0.89520
H1126       H  0.64995575  0.16232410  0.24117476     0.18170
H1127       H  0.57401648  0.22588773  0.17355315     0.18160
N1128       N  0.61452623  0.18866464  0.13967475    -0.88550
H1129       H  0.62282163  0.17585960  0.28783824     0.35540
H1130       H  0.58275413  0.17558444  0.27976140     0.40640
H1131       H  0.63129014  0.17092349  0.13264630     0.40260
H1132       H  0.61669031  0.20902287  0.12448444     0.35150
C1133       C  0.74203173  0.11410686  0.20383307    -0.26580
C1134       C  0.72124928  0.09062483  0.21736495    -0.14660
C1135       C  0.68716473  0.09447030  0.21262740     0.35970
C1136       C  0.67516503  0.12321627  0.19799395    -0.26030
C1137       C  0.69592706  0.14931657  0.18893248    -0.15270
C1138       C  0.73003343  0.14250349  0.18922280     0.37060
N1139       N  0.75305006  0.16412597  0.17450205    -0.89520
H1140       H  0.76829849  0.11086683  0.20525354     0.18170
H1141       H  0.64902823  0.12509994  0.19455915     0.18160
N1142       N  0.66397244  0.06989075  0.22174026    -0.88550
H1143       H  0.77006554  0.17082442  0.19251033     0.35540
H1144       H  0.76556826  0.15174061  0.15578338     0.40640
H1145       H  0.67557174  0.04899454  0.23014282     0.40260
H1146       H  0.65156609  0.06310569  0.20018170     0.35150
C1147       C  0.70101654  0.17649107  0.12138907    -0.26580
C1148       C  0.68547518  0.19619951  0.14541893    -0.14660
C1149       C  0.67745720  0.22879250  0.13520205     0.35970
C1150       C  0.68884759  0.24061996  0.10466798    -0.26030
C1151       C  0.71063887  0.22291974  0.08492829    -0.15270
C1152       C  0.71507638  0.18974140  0.09248941     0.37060
N1153       N  0.73416400  0.16886989  0.07178769    -0.89520
H1154       H  0.70532570  0.15114980  0.12623935     0.18170
H1155       H  0.68413229  0.26577581  0.09880987     0.18160
N1156       N  0.66300941  0.25271785  0.15668179    -0.88550
H1157       H  0.75850165  0.17642752  0.07231203     0.35540
H1158       H  0.72533838  0.17048165  0.04750103     0.40640
H1159       H  0.65971243  0.24517510  0.18103952     0.40260
H1160       H  0.64021047  0.25913101  0.14702238     0.35150
C1161       C  0.70256028  0.20743237  0.23933683    -0.26580
C1162       C  0.70451043  0.20809843  0.20423673    -0.14660
C1163       C  0.72900727  0.22967545  0.19104025     0.35970
C1164       C  0.74557704  0.25108408  0.21148492    -0.26030
C1165       C  0.74527256  0.24769060  0.24581427    -0.15270
C1166       C  0.72075363  0.22789815  0.25975311     0.37060
N1167       N  0.71604506  0.22640549  0.29503208    -0.89520
H1168       H  0.68933759  0.18943883  0.25249894     0.18170
H1169       H  0.76104305  0.26867361  0.19950747     0.18160
N1170       N  0.74081015  0.22820238  0.15764945    -0.88550
H1171       H  0.69183784  0.23287265  0.30010221     0.35540
H1172       H  0.71942921  0.20261115  0.30306509     0.40640
H1173       H  0.76581244  0.22301329  0.15783846     0.40260
H1174       H  0.73824725  0.25119377  0.14755272     0.35150
C1175       C  0.79186857  0.21757169  0.42154031    -0.26580
C1176       C  0.81104401  0.21949743  0.44965229    -0.14660
C1177       C  0.84227982  0.20457514  0.44958344     0.35970
C1178       C  0.85403309  0.18992283  0.42010635    -0.26030
C1179       C  0.83682620  0.19239782  0.38982116    -0.15270
C1180       C  0.80326449  0.20324362  0.39264078     0.37060
N1181       N  0.77935593  0.19782018  0.36722238    -0.89520
H1182       H  0.76709721  0.22701530  0.42201185     0.18170
H1183       H  0.87660050  0.17635066  0.42118039     0.18160
N1184       N  0.86212509  0.20278783  0.47891607    -0.88550
H1185       H  0.75985947  0.18468141  0.37716872     0.35540
H1186       H  0.76981253  0.22011853  0.36011341     0.40640
H1187       H  0.85048737  0.21345068  0.49921562     0.40260
H1188       H  0.88337680  0.21610939  0.47438584     0.35150
C1189       C  0.67547168  0.33825633  0.62744354    -0.26580
C1190       C  0.69591510  0.35342392  0.65119730    -0.14660
C1191       C  0.72726979  0.36233037  0.63847884     0.35970
C1192       C  0.74050707  0.34559313  0.61116052    -0.26030
C1193       C  0.72216457  0.32260896  0.59367279    -0.15270
C1194       C  0.68832236  0.32108616  0.60047444     0.37060
N1195       N  0.66612934  0.30282217  0.58044088    -0.89520
H1196       H  0.64924802  0.33792003  0.63020354     0.18170
H1197       H  0.76519458  0.35121579  0.60329772     0.18160
N1198       N  0.74263521  0.39208316  0.64800356    -0.88550
H1199       H  0.67168397  0.27827534  0.58270109     0.35540
H1200       H  0.66879632  0.31002040  0.55569535     0.40640
H1201       H  0.73929728  0.40850135  0.62854731     0.40260
H1202       H  0.76792517  0.38864812  0.64910319     0.35150
C1203       C  0.70729001  0.36369062  0.41310057    -0.26580
C1204       C  0.69215738  0.34298709  0.38968904    -0.14660
C1205       C  0.68567745  0.31060428  0.40018836     0.35970
C1206       C  0.69765109  0.29929280  0.43062133    -0.26030
C1207       C  0.71810876  0.31832637  0.45053646    -0.15270
C1208       C  0.72154432  0.35143746  0.44257214     0.37060
N1209       N  0.73962686  0.37252892  0.46407830    -0.89520
H1210       H  0.71068712  0.38899717  0.40746107     0.18170
H1211       H  0.69378040  0.27406023  0.43671645     0.18160
N1212       N  0.67048437  0.28782272  0.37828160    -0.88550
H1213       H  0.73760145  0.39649875  0.45607673     0.35540
H1214       H  0.76434239  0.36655180  0.46175758     0.40640
H1215       H  0.65005222  0.27818775  0.39036781     0.40260
H1216       H  0.68683784  0.26884233  0.37396929     0.35150
C1217       C  0.44172933  0.72162376  0.69167051    -0.26580
C1218       C  0.44995448  0.71542260  0.72489235    -0.14660
C1219       C  0.43085108  0.69285516  0.74264400     0.35970
C1220       C  0.40245351  0.68013284  0.72803891    -0.26030
C1221       C  0.39114928  0.68967758  0.69613331    -0.15270
C1222       C  0.41300694  0.70931356  0.67711066     0.37060
N1223       N  0.40571266  0.71941810  0.64403927    -0.89520
H1224       H  0.45682222  0.73783510  0.67709253     0.18170
H1225       H  0.38707804  0.66475839  0.74320164     0.18160
N1226       N  0.43899349  0.68424322  0.77621962    -0.88550
H1227       H  0.42465109  0.71164161  0.62852126     0.35540
H1228       H  0.40507766  0.74467460  0.64331482     0.40640
H1229       H  0.46055819  0.67069323  0.77537375     0.40260
H1230       H  0.42119619  0.66910577  0.78651085     0.35150
C1231       C  0.59588217  0.71144638  0.69081983    -0.26580
C1232       C  0.59070930  0.71016567  0.72526532    -0.14660
C1233       C  0.61239904  0.69171692  0.74479222     0.35970
C1234       C  0.64174575  0.68088287  0.73059727    -0.26030
C1235       C  0.65045331  0.68831418  0.69735086    -0.15270
C1236       C  0.62458840  0.69885592  0.67630181     0.37060
N1237       N  0.62716053  0.69746066  0.64077089    -0.89520
H1238       H  0.57768622  0.72286863  0.67519120     0.18170
H1239       H  0.65950620  0.67054986  0.74724026     0.18160
N1240       N  0.60683278  0.68737090  0.77978376    -0.88550
H1241       H  0.60808441  0.71033458  0.62964696     0.35540
H1242       H  0.62371445  0.67344308  0.63377560     0.40640
H1243       H  0.61043258  0.70973865  0.79125550     0.40260
H1244       H  0.62419222  0.67169238  0.78998614     0.35150
C1245       C  0.60964005  0.73630751  0.33871851    -0.26580
C1246       C  0.59224463  0.71951551  0.31444125    -0.14660
C1247       C  0.60208307  0.68732783  0.30738285     0.35970
C1248       C  0.63006396  0.67409945  0.32264146    -0.26030
C1249       C  0.64992538  0.69220332  0.34457163    -0.15270
C1250       C  0.63799708  0.72372236  0.35325039     0.37060
N1251       N  0.65596852  0.74475434  0.37474394    -0.89520
H1252       H  0.60246907  0.76069287  0.34529853     0.18170
H1253       H  0.63769199  0.65071292  0.31388072     0.18160
N1254       N  0.58497754  0.66752316  0.28405151    -0.88550
H1255       H  0.64067049  0.75188359  0.39420950     0.35540
H1256       H  0.66199283  0.76564124  0.36140766     0.40640
H1257       H  0.58659051  0.67810076  0.26054380     0.40260
H1258       H  0.56047669  0.66598630  0.29129762     0.35150
C1259       C  0.41908455  0.67358953  0.33758160    -0.26580
C1260       C  0.39515367  0.69348266  0.35289986    -0.14660
C1261       C  0.40592335  0.72550093  0.36221200     0.35970
C1262       C  0.43579779  0.73741104  0.34992540    -0.26030
C1263       C  0.45435851  0.71985410  0.32691288    -0.15270
C1264       C  0.44747764  0.68673393  0.32301415     0.37060
N1265       N  0.46869214  0.66674127  0.30330479    -0.89520
H1266       H  0.41461681  0.64814674  0.33382412     0.18170
H1267       H  0.44176833  0.76252116  0.35454569     0.18160
N1268       N  0.38519496  0.74928318  0.37765199    -0.88550
H1269       H  0.45997368  0.64301568  0.30234085     0.35540
H1270       H  0.49136050  0.66583935  0.31521923     0.40640
H1271       H  0.39404507  0.75366157  0.40154271     0.40260
H1272       H  0.36079707  0.74248733  0.37923101     0.35150
C1273       C  0.18611481  0.81464469  0.64006566    -0.26580
C1274       C  0.20013356  0.84190040  0.65568389    -0.14660
C1275       C  0.22666187  0.85678882  0.63805960     0.35970
C1276       C  0.23805088  0.84382209  0.60767267    -0.26030
C1277       C  0.22472970  0.81563842  0.59380361    -0.15270
C1278       C  0.19740058  0.80177255  0.61012370     0.37060
N1279       N  0.18091596  0.77361019  0.59803814    -0.89520
H1280       H  0.16668084  0.80149397  0.65186796     0.18170
H1281       H  0.25878208  0.85525142  0.59570686     0.18160
N1282       N  0.24366685  0.88417397  0.65112666    -0.88550
H1283       H  0.19704273  0.75401243  0.59815076     0.35540
H1284       H  0.17240600  0.77813921  0.57402547     0.40640
H1285       H  0.24155400  0.90311264  0.63404357     0.40260
H1286       H  0.26847094  0.87839263  0.65314183     0.35150
C1287       C  0.12974415  0.84011404  0.68109410    -0.26580
C1288       C  0.15569563  0.84330150  0.70427320    -0.14660
C1289       C  0.14656626  0.84071291  0.73837416     0.35970
C1290       C  0.11575150  0.82929503  0.74755622    -0.26030
C1291       C  0.09268556  0.81978558  0.72410420    -0.15270
C1292       C  0.09898684  0.82696725  0.69028501     0.37060
N1293       N  0.07509860  0.82154197  0.66478821    -0.89520
H1294       H  0.13355763  0.84629702  0.65529718     0.18170
H1295       H  0.11079906  0.82569240  0.77376661     0.18160
N1296       N  0.16914737  0.84691813  0.76440585    -0.88550
H1297       H  0.06965559  0.84394111  0.65408167     0.35540
H1298       H  0.05320922  0.81295673  0.67476552     0.40640
H1299       H  0.17189025  0.82588714  0.77859296     0.40260
H1300       H  0.15925237  0.86484614  0.77969629     0.35150
C1301       C  0.24815424  0.82317673  0.71058802    -0.26580
C1302       C  0.21401938  0.81971969  0.71006516    -0.14660
C1303       C  0.20220205  0.79058878  0.72438335     0.35970
C1304       C  0.22096249  0.77455658  0.74797264    -0.26030
C1305       C  0.25466326  0.78071893  0.75353581    -0.15270
C1306       C  0.26806839  0.80568762  0.73277309     0.37060
N1307       N  0.30084227  0.81685356  0.73609730    -0.89520
H1308       H  0.25922742  0.84306934  0.69741872     0.18170
H1309       H  0.20724746  0.75680608  0.76098568     0.18160
N1310       N  0.17483804  0.77259872  0.71196100    -0.88550
H1311       H  0.30048649  0.84138233  0.74204323     0.35540
H1312       H  0.31231690  0.81464922  0.71298405     0.40640
H1313       H  0.17962074  0.76519158  0.68772382     0.40260
H1314       H  0.15254159  0.78425484  0.71384381     0.35150
C1315       C  0.19067235  0.90973123  0.68857566    -0.26580
C1316       C  0.20242192  0.88231220  0.70633585    -0.14660
C1317       C  0.22127020  0.88940642  0.73546059     0.35970
C1318       C  0.22980477  0.92096120  0.74353630    -0.26030
C1319       C  0.22023791  0.94718072  0.72471020    -0.15270
C1320       C  0.20025886  0.94181927  0.69661915     0.37060
N1321       N  0.18908470  0.96796396  0.67607225    -0.89520
H1322       H  0.17515498  0.90601912  0.66716074     0.18170
H1323       H  0.24462110  0.92493972  0.76552311     0.18160
N1324       N  0.23096563  0.86565206  0.75899970    -0.88550
H1325       H  0.19925571  0.96472712  0.65248600     0.35540
H1326       H  0.19765847  0.99012634  0.68485055     0.40640
H1327       H  0.25631326  0.86723165  0.76150986     0.40260
H1328       H  0.22126242  0.87261668  0.78194517     0.35150
C1329       C  0.81083090  0.18218047  0.64121513    -0.26580
C1330       C  0.84359573  0.18957339  0.65013021    -0.14660
C1331       C  0.86238034  0.20673935  0.62554019     0.35970
C1332       C  0.84680060  0.22005745  0.59765549    -0.26030
C1333       C  0.81330469  0.21609029  0.59205873    -0.15270
C1334       C  0.79580214  0.19454818  0.61266184     0.37060
N1335       N  0.76200418  0.18728276  0.60632269    -0.89520
H1336       H  0.79553255  0.16919820  0.65868065     0.18170
H1337       H  0.86105294  0.23473607  0.58066432     0.18160
N1338       N  0.89689477  0.21175095  0.62710010    -0.88550
H1339       H  0.75210550  0.17305381  0.62530377     0.35540
H1340       H  0.76120763  0.17309574  0.58488915     0.40640
H1341       H  0.90871798  0.18961281  0.62980089     0.40260
H1342       H  0.90296650  0.22836133  0.64544914     0.35150
C1343       C  0.84857147  0.10577200  0.74133493    -0.26580
C1344       C  0.82682549  0.08711959  0.72244129    -0.14660
C1345       C  0.82401405  0.09453965  0.68829937     0.35970
C1346       C  0.83708418  0.12380391  0.67633584    -0.26030
C1347       C  0.85157534  0.14707306  0.69761409    -0.15270
C1348       C  0.86220163  0.13468420  0.72910567     0.37060
N1349       N  0.88572064  0.15147883  0.74942695    -0.89520
H1350       H  0.85384735  0.09872938  0.76667119     0.18170
H1351       H  0.83493650  0.12804352  0.65003290     0.18160
N1352       N  0.80850258  0.07321482  0.66494448    -0.88550
H1353       H  0.89128073  0.13827759  0.77083599     0.35540
H1354       H  0.87655083  0.17364528  0.75740243     0.40640
H1355       H  0.80427754  0.05054507  0.67539854     0.40260
H1356       H  0.82525648  0.06876579  0.64585546     0.35150
C1357       C  0.78445051  0.24637619  0.71585493    -0.26580
C1358       C  0.78159077  0.24046231  0.75007454    -0.14660
C1359       C  0.79918682  0.21360256  0.76286712     0.35970
C1360       C  0.81663866  0.19356008  0.74123967    -0.26030
C1361       C  0.82472974  0.20277483  0.70842663    -0.15270
C1362       C  0.80854905  0.23145072  0.69673739     0.37060
N1363       N  0.81788699  0.24769165  0.66671571    -0.89520
H1364       H  0.77024007  0.26451848  0.70340468     0.18170
H1365       H  0.82418519  0.17127655  0.75179364     0.18160
N1366       N  0.79899510  0.20612792  0.79781658    -0.88550
H1367       H  0.82614282  0.27085203  0.67278765     0.35540
H1368       H  0.79708112  0.25051754  0.65194656     0.40640
H1369       H  0.81122483  0.22463232  0.81021810     0.40260
H1370       H  0.81241684  0.18520710  0.80286349     0.35150
C1371       C  0.88739836  0.23217383  0.70921331    -0.26580
C1372       C  0.88626748  0.19989683  0.69738624    -0.14660
C1373       C  0.91683052  0.18309836  0.69568269     0.35970
C1374       C  0.94539467  0.19711916  0.70920010    -0.26030
C1375       C  0.94502857  0.22861314  0.72197807    -0.15270
C1376       C  0.91600170  0.24650895  0.72049182     0.37060
N1377       N  0.91458983  0.27939969  0.73136113    -0.89520
H1378       H  0.86615160  0.24736263  0.70998059     0.18170
H1379       H  0.96800163  0.18345571  0.70934822     0.18160
N1380       N  0.91905231  0.15160575  0.68104424    -0.88550
H1381       H  0.92982737  0.29341679  0.71630570     0.35540
H1382       H  0.92285666  0.28055393  0.75587408     0.40640
H1383       H  0.92783237  0.13556057  0.69901776     0.40260
H1384       H  0.93650121  0.15244381  0.66208524     0.35150
C1385       C  0.60967879  0.79407335  0.19648990    -0.26580
C1386       C  0.58643678  0.81381095  0.21150125    -0.14660
C1387       C  0.58999909  0.84764005  0.20825557     0.35970
C1388       C  0.61871432  0.86050624  0.19336555    -0.26030
C1389       C  0.64575203  0.84059701  0.18568009    -0.15270
C1390       C  0.63864761  0.80682002  0.18338263     0.37060
N1391       N  0.66046660  0.78480638  0.16762386    -0.89520
H1392       H  0.60631325  0.76807933  0.19644213     0.18170
H1393       H  0.62055650  0.88632100  0.18967387     0.18160
N1394       N  0.56483968  0.86875833  0.22044596    -0.88550
H1395       H  0.66622432  0.76652969  0.18462907     0.35540
H1396       H  0.64825159  0.77413474  0.14767418     0.40640
H1397       H  0.54378345  0.86444965  0.20647045     0.40260
H1398       H  0.57126285  0.89291133  0.21646352     0.35150
C1399       C  0.67444293  0.83990562  0.11986972    -0.26580
C1400       C  0.69492436  0.85155206  0.14550879    -0.14660
C1401       C  0.72890829  0.85694062  0.13694371     0.35970
C1402       C  0.74080703  0.84627584  0.10622117    -0.26030
C1403       C  0.72148591  0.82766438  0.08506704    -0.15270
C1404       C  0.68754189  0.82648504  0.09060590     0.37060
N1405       N  0.66660333  0.81089863  0.06692664    -0.89520
H1406       H  0.64831329  0.83852248  0.12347088     0.18170
H1407       H  0.76675918  0.84856980  0.10125443     0.18160
N1408       N  0.75327745  0.86886898  0.15978297    -0.88550
H1409       H  0.64224072  0.81176435  0.07475498     0.35540
H1410       H  0.66793423  0.82409359  0.04480828     0.40640
H1411       H  0.77140954  0.85120515  0.16235537     0.40260
H1412       H  0.74446535  0.87247045  0.18366155     0.35150
C1413       C  0.74332837  0.78692376  0.21403897    -0.26580
C1414       C  0.74333216  0.79277331  0.24821681    -0.14660
C1415       C  0.71917710  0.81408392  0.26042269     0.35970
C1416       C  0.70052254  0.83237632  0.23859944    -0.26030
C1417       C  0.70356699  0.83070008  0.20398108    -0.15270
C1418       C  0.72430055  0.80480570  0.19200430     0.37060
N1419       N  0.72554514  0.79425865  0.15808734    -0.89520
H1420       H  0.75739412  0.76737658  0.20350705     0.18170
H1421       H  0.68359812  0.84785593  0.25001686     0.18160
N1422       N  0.71393665  0.81823456  0.29530684    -0.88550
H1423       H  0.71924129  0.76979104  0.15702258     0.35540
H1424       H  0.74985805  0.79554697  0.15009639     0.40640
H1425       H  0.68968053  0.81216730  0.30065195     0.40260
H1426       H  0.71726704  0.84262052  0.30119175     0.35150
C1427       C  0.70065982  0.91487488  0.17349953    -0.26580
C1428       C  0.68546119  0.89138043  0.19436576    -0.14660
C1429       C  0.67812159  0.90355659  0.22707355     0.35970
C1430       C  0.69746780  0.92872152  0.24041781    -0.26030
C1431       C  0.71905958  0.94706394  0.22083445    -0.15270
C1432       C  0.71874923  0.94106348  0.18631202     0.37060
N1433       N  0.73645785  0.96097201  0.16342029    -0.89520
H1434       H  0.70117500  0.91185575  0.14689434     0.18170
H1435       H  0.69362493  0.93560580  0.26605845     0.18160
N1436       N  0.64678876  0.89809703  0.24284022    -0.88550
H1437       H  0.76138626  0.95913139  0.16868570     0.35540
H1438       H  0.72897586  0.98494342  0.16656230     0.40640
H1439       H  0.64332641  0.87482180  0.25176909     0.40260
H1440       H  0.64327387  0.91345781  0.26312529     0.35150
C1441       C  0.60243951  0.18944196  0.79545679    -0.26580
C1442       C  0.58383637  0.20973459  0.81571586    -0.14660
C1443       C  0.58767515  0.20595443  0.85052330     0.35970
C1444       C  0.61404719  0.18734063  0.86284356    -0.26030
C1445       C  0.63916735  0.17600693  0.84176252    -0.15270
C1446       C  0.62840482  0.17095802  0.80804156     0.37060
N1447       N  0.63883627  0.14449050  0.78728789    -0.89520
H1448       H  0.59674154  0.18764253  0.76926100     0.18170
H1449       H  0.61547053  0.18325092  0.88929117     0.18160
N1450       N  0.56498564  0.21925300  0.87406649    -0.88550
H1451       H  0.64332415  0.15303927  0.76325637     0.35540
H1452       H  0.66029356  0.13379585  0.79503507     0.40640
H1453       H  0.54425790  0.22869175  0.86255679     0.40260
H1454       H  0.57678236  0.23808188  0.88648591     0.35150
C1455       C  0.69883181  0.08743106  0.83494168    -0.26580
C1456       C  0.72938641  0.09088842  0.81932162    -0.14660
C1457       C  0.74427828  0.12143209  0.81798561     0.35970
C1458       C  0.72790483  0.14783630  0.83113601    -0.26030
C1459       C  0.69546956  0.14588425  0.84377840    -0.15270
C1460       C  0.68208955  0.11449558  0.84784481     0.37060
N1461       N  0.65125451  0.11014516  0.86409400    -0.89520
H1462       H  0.68776198  0.06370860  0.83678674     0.18170
H1463       H  0.74130127  0.17030331  0.83126454     0.18160
N1464       N  0.77543222  0.12715796  0.80236031    -0.88550
H1465       H  0.65469714  0.09442854  0.88412799     0.35540
H1466       H  0.63532770  0.09897933  0.84741000     0.40640
H1467       H  0.78457766  0.10695534  0.79007502     0.40260
H1468       H  0.79209602  0.13293619  0.82106121     0.35150
C1469       C  0.69553773  0.20062767  0.79665346    -0.26580
C1470       C  0.69211634  0.20529275  0.83142403    -0.14660
C1471       C  0.71206660  0.22987945  0.84523973     0.35970
C1472       C  0.74015443  0.23859131  0.82842808    -0.26030
C1473       C  0.73969272  0.23932592  0.79361720    -0.15270
C1474       C  0.71812739  0.21775367  0.77768557     0.37060
N1475       N  0.71862951  0.21352911  0.74236029    -0.89520
H1476       H  0.68368511  0.18159221  0.78393153     0.18170
H1477       H  0.75842067  0.25095059  0.84270824     0.18160
N1478       N  0.69816703  0.25619859  0.86334405    -0.88550
H1479       H  0.69542178  0.21894743  0.73305684     0.35540
H1480       H  0.72348744  0.18919980  0.73737823     0.40640
H1481       H  0.67273472  0.25712736  0.86167787     0.40260
H1482       H  0.70777905  0.25732235  0.88722444     0.35150
C1483       C  0.72440100  0.19031077  0.93630223    -0.26580
C1484       C  0.71118778  0.21956962  0.94715102    -0.14660
C1485       C  0.68018248  0.22830377  0.93491475     0.35970
C1486       C  0.66755424  0.21218391  0.90684419    -0.26030
C1487       C  0.68332715  0.18535845  0.89153997    -0.15270
C1488       C  0.71013787  0.17226065  0.91071121     0.37060
N1489       N  0.72172589  0.13969733  0.90844766    -0.89520
H1490       H  0.74614807  0.18080369  0.94817043     0.18170
H1491       H  0.64743712  0.22414142  0.89497844     0.18160
N1492       N  0.66291553  0.25543106  0.94872561    -0.88550
H1493       H  0.73942323  0.13670156  0.89016040     0.35540
H1494       H  0.70247446  0.12321865  0.90803043     0.40640
H1495       H  0.65640982  0.24925316  0.97302932     0.40260
H1496       H  0.64101224  0.25953257  0.93606314     0.35150
C1497       C  0.22013915  0.63657705  0.85192985    -0.26580
C1498       C  0.18703976  0.64616590  0.84669237    -0.14660
C1499       C  0.16864749  0.62538655  0.82514187     0.35970
C1500       C  0.18376983  0.59865530  0.80931337    -0.26030
C1501       C  0.21710566  0.59182978  0.81320550    -0.15270
C1502       C  0.23532249  0.61112544  0.83518763     0.37060
N1503       N  0.27003584  0.60646918  0.83891250    -0.89520
H1504       H  0.23629162  0.65216041  0.86580574     0.18170
H1505       H  0.16939430  0.58383756  0.79267648     0.18160
N1506       N  0.13553986  0.63197661  0.81646810    -0.88550
H1507       H  0.27982481  0.62216414  0.85660597     0.35540
H1508       H  0.28105619  0.61247920  0.81628655     0.40640
H1509       H  0.12139339  0.61185763  0.82284264     0.40260
H1510       H  0.13415697  0.63518335  0.79075481     0.35150
C1511       C  0.11552867  0.68465056  0.84986147    -0.26580
C1512       C  0.14634477  0.69870160  0.84311708    -0.14660
C1513       C  0.14530153  0.73096654  0.82906456     0.35970
C1514       C  0.11660057  0.74332069  0.81594676    -0.26030
C1515       C  0.08742547  0.72687070  0.81858544    -0.15270
C1516       C  0.08631802  0.69739436  0.83640748     0.37060
N1517       N  0.05627129  0.68026320  0.84198376    -0.89520
H1518       H  0.11424591  0.66305434  0.86504460     0.18170
H1519       H  0.11710688  0.76694295  0.80414212     0.18160
N1520       N  0.17190655  0.75341485  0.83102900    -0.88550
H1521       H  0.05814722  0.65798578  0.82991603     0.35540
H1522       H  0.03646570  0.69239883  0.83139238     0.40640
H1523       H  0.17714611  0.76166464  0.80712741     0.40260
H1524       H  0.16457448  0.77349281  0.84488952     0.35150
C1525       C  0.22806124  0.72112903  0.85586807    -0.26580
C1526       C  0.20684390  0.70053604  0.83877037    -0.14660
C1527       C  0.21090701  0.69791620  0.80384511     0.35970
C1528       C  0.23507830  0.71556353  0.78796086    -0.26030
C1529       C  0.25165432  0.74088860  0.80396840    -0.15270
C1530       C  0.24749982  0.74330849  0.83930968     0.37060
N1531       N  0.26164670  0.76811916  0.85946203    -0.89520
H1532       H  0.22760724  0.72324521  0.88232715     0.18170
H1533       H  0.23875525  0.71153998  0.76160898     0.18160
N1534       N  0.18955366  0.67857701  0.78397356    -0.88550
H1535       H  0.27618466  0.75727274  0.87769828     0.35540
H1536       H  0.24283540  0.78079264  0.87132129     0.40640
H1537       H  0.20376527  0.66185513  0.77088946     0.40260
H1538       H  0.17799870  0.69365334  0.76674159     0.35150
C1539       C  0.20307112  0.67135638  0.91573588    -0.26580
C1540       C  0.18046076  0.68872715  0.89582625    -0.14660
C1541       C  0.16919997  0.71825066  0.91038589     0.35970
C1542       C  0.18746030  0.73346842  0.93543811    -0.26030
C1543       C  0.21600088  0.71948691  0.94832916    -0.15270
C1544       C  0.22206770  0.68674297  0.94049523     0.37060
N1545       N  0.24764689  0.66929385  0.95712412    -0.89520
H1546       H  0.20726128  0.64601907  0.91135189     0.18170
H1547       H  0.17951966  0.75700112  0.94402966     0.18160
N1548       N  0.13855881  0.73242692  0.90135583    -0.88550
H1549       H  0.24946315  0.64574684  0.94792111     0.35540
H1550       H  0.24102221  0.66727325  0.98211740     0.40640
H1551       H  0.12344963  0.73219434  0.92230672     0.40260
H1552       H  0.14251490  0.75661047  0.89504555     0.35150
C1553       C  0.85755677  0.62748166  0.20235539    -0.26580
C1554       C  0.83722348  0.65274508  0.19062165    -0.14660
C1555       C  0.80334331  0.64502673  0.18578890     0.35970
C1556       C  0.79081151  0.61498826  0.19672643    -0.26030
C1557       C  0.81055717  0.59227404  0.21303219    -0.15270
C1558       C  0.84463399  0.59795415  0.21416846     0.37060
N1559       N  0.86610886  0.57390762  0.22794076    -0.89520
H1560       H  0.88366796  0.63095634  0.20385659     0.18170
H1561       H  0.76483367  0.61038794  0.19467036     0.18160
N1562       N  0.78133686  0.66795509  0.17075935    -0.88550
H1563       H  0.89036369  0.58183902  0.22748537     0.35540
H1564       H  0.86496737  0.55356049  0.21263102     0.40640
H1565       H  0.77636340  0.68631892  0.18770428     0.40260
H1566       H  0.75883155  0.65714913  0.16557522     0.35150
C1567       C  0.81744271  0.69625715  0.09522925    -0.26580
C1568       C  0.81859830  0.72988791  0.09072426    -0.14660
C1569       C  0.83802992  0.74797159  0.11278328     0.35970
C1570       C  0.85179207  0.73287989  0.14047448    -0.26030
C1571       C  0.84480249  0.70048910  0.14940828    -0.15270
C1572       C  0.83258256  0.68120656  0.12258892     0.37060
N1573       N  0.84005182  0.64747766  0.11898835    -0.89520
H1574       H  0.80629834  0.68131058  0.07630774     0.18170
H1575       H  0.86973385  0.74663134  0.15370534     0.18160
N1576       N  0.84385716  0.78186029  0.10842563    -0.88550
H1577       H  0.81917085  0.63367074  0.12356225     0.35540
H1578       H  0.85949191  0.64037407  0.13404861     0.40640
H1579       H  0.82139286  0.79391131  0.10765074     0.40260
H1580       H  0.85638430  0.78544372  0.08610481     0.35150
C1581       C  0.83467599  0.74470058  0.21177270    -0.26580
C1582       C  0.83087640  0.71061277  0.21194544    -0.14660
C1583       C  0.81306992  0.69866607  0.24009069     0.35970
C1584       C  0.79365232  0.71953739  0.25881624    -0.26030
C1585       C  0.79103225  0.75249003  0.25223005    -0.15270
C1586       C  0.81422572  0.76542900  0.22989593     0.37060
N1587       N  0.81728978  0.79968489  0.22556526    -0.89520
H1588       H  0.85465030  0.75620617  0.19958292     0.18170
H1589       H  0.78295066  0.71044396  0.28093570     0.18160
N1590       N  0.81667858  0.66632244  0.25240105    -0.88550
H1591       H  0.81359269  0.80504344  0.20047606     0.35540
H1592       H  0.84115071  0.80636769  0.23171195     0.40640
H1593       H  0.82542535  0.66732358  0.27675879     0.40260
H1594       H  0.79365013  0.65546459  0.25303752     0.35150
C1595       C  0.89401437  0.68879578  0.23187566    -0.26580
C1596       C  0.88707133  0.69193420  0.19766739    -0.14660
C1597       C  0.91347501  0.70202897  0.17697483     0.35970
C1598       C  0.94146234  0.71626085  0.19147202    -0.26030
C1599       C  0.94542839  0.71743061  0.22606576    -0.15270
C1600       C  0.92226188  0.70155379  0.24614926     0.37060
N1601       N  0.92617393  0.69982631  0.28145653    -0.89520
H1602       H  0.87633144  0.67822752  0.24842766     0.18170
H1603       H  0.96045644  0.72613211  0.17567602     0.18160
N1604       N  0.91256363  0.69705541  0.14171659    -0.88550
H1605       H  0.92602881  0.67546154  0.28838381     0.35540
H1606       H  0.90600533  0.71100284  0.29257279     0.40640
H1607       H  0.91207016  0.67211651  0.13766823     0.40260
H1608       H  0.93387851  0.70571458  0.13046103     0.35150
C1609       C  0.22694577  0.84771757  0.43898012    -0.26580
C1610       C  0.22494650  0.81432378  0.44429714    -0.14660
C1611       C  0.20818320  0.79550600  0.42098324     0.35970
C1612       C  0.19430175  0.81030591  0.39317316    -0.26030
C1613       C  0.19655765  0.84408424  0.38578480    -0.15270
C1614       C  0.21347576  0.86279040  0.41048903     0.37060
N1615       N  0.21911701  0.89663576  0.40716495    -0.89520
H1616       H  0.23995427  0.86242856  0.45684418     0.18170
H1617       H  0.18326261  0.79415664  0.37538057     0.18160
N1618       N  0.20678137  0.76087452  0.42442691    -0.88550
H1619       H  0.24430883  0.90087038  0.40781486     0.35540
H1620       H  0.20859129  0.90829148  0.42757196     0.40640
H1621       H  0.23056965  0.75198619  0.42164047     0.40260
H1622       H  0.19292589  0.75044629  0.40547898     0.35150
C1623       C  0.12982263  0.82573114  0.36114025    -0.26580
C1624       C  0.14762172  0.84912168  0.34285169    -0.14660
C1625       C  0.13003253  0.86239709  0.31521514     0.35970
C1626       C  0.10392464  0.84507397  0.30091829    -0.26030
C1627       C  0.09164064  0.81680300  0.31542734    -0.15270
C1628       C  0.10358868  0.80827099  0.34723345     0.37060
N1629       N  0.08964120  0.78167331  0.36538833    -0.89520
H1630       H  0.13636493  0.82000123  0.38627267     0.18170
H1631       H  0.09259785  0.85432678  0.27855464     0.18160
N1632       N  0.13635418  0.89454002  0.30327338    -0.88550
H1633       H  0.09962926  0.78012174  0.38920831     0.35540
H1634       H  0.09666728  0.76044575  0.35325629     0.40640
H1635       H  0.12913094  0.91053313  0.32195625     0.40260
H1636       H  0.12200981  0.90001749  0.28255607     0.35150
C1637       C  0.19267129  0.80397440  0.31070221    -0.26580
C1638       C  0.20739858  0.82916147  0.32880863    -0.14660
C1639       C  0.24245335  0.82830080  0.33143175     0.35970
C1640       C  0.26006227  0.80347760  0.31637998    -0.26030
C1641       C  0.24565618  0.78125456  0.29440474    -0.15270
C1642       C  0.21082458  0.77929462  0.29553593     0.37060
N1643       N  0.19242526  0.75141790  0.28604118    -0.89520
H1644       H  0.16642376  0.80180747  0.30956078     0.18170
H1645       H  0.28645972  0.80438448  0.31841515     0.18160
N1646       N  0.26185814  0.85232700  0.34809758    -0.88550
H1647       H  0.18129013  0.74334281  0.30788808     0.35540
H1648       H  0.20694053  0.73207853  0.27936058     0.40640
H1649       H  0.24832759  0.87157026  0.35684716     0.40260
H1650       H  0.27768264  0.86246825  0.33051990     0.35150
C1651       C  0.21997397  0.92204412  0.29037557    -0.26580
C1652       C  0.21972721  0.94886233  0.31096042    -0.14660
C1653       C  0.20295466  0.94697451  0.34163111     0.35970
C1654       C  0.18951513  0.91700781  0.35172864    -0.26030
C1655       C  0.19571938  0.88815453  0.33406385    -0.15270
C1656       C  0.20704163  0.89265841  0.30034995     0.37060
N1657       N  0.20132865  0.87037587  0.27370884    -0.89520
H1658       H  0.22975096  0.92410656  0.26538338     0.18170
H1659       H  0.17451510  0.91619505  0.37386527     0.18160
N1660       N  0.19813194  0.97475238  0.36242444    -0.88550
H1661       H  0.21894810  0.85250712  0.27337924     0.35540
H1662       H  0.17817692  0.86019363  0.27465207     0.40640
H1663       H  0.20859492  0.99540541  0.35195325     0.40260
H1664       H  0.21039418  0.97043654  0.38474467     0.35150
C1665       C  0.83975802  0.80857503  0.64203659    -0.26580
C1666       C  0.84738337  0.84195321  0.64407864    -0.14660
C1667       C  0.84883981  0.85887085  0.61341219     0.35970
C1668       C  0.83428462  0.84513473  0.58475719    -0.26030
C1669       C  0.82106048  0.81377427  0.58575621    -0.15270
C1670       C  0.82582635  0.79486938  0.61424595     0.37060
N1671       N  0.81401939  0.76229068  0.61699623    -0.89520
H1672       H  0.83959764  0.79322187  0.66344548     0.18170
H1673       H  0.83367730  0.85874855  0.56177972     0.18160
N1674       N  0.86660049  0.88852244  0.61051050    -0.88550
H1675       H  0.82618806  0.74770385  0.59983023     0.35540
H1676       H  0.78894360  0.76205936  0.61207572     0.40640
H1677       H  0.85203485  0.90542313  0.59819427     0.40260
H1678       H  0.88649669  0.88414214  0.59482877     0.35150
C1679       C  0.77907274  0.80760291  0.71541392    -0.26580
C1680       C  0.79020957  0.80131259  0.74788243    -0.14660
C1681       C  0.81448990  0.82299043  0.76025174     0.35970
C1682       C  0.83215878  0.84192330  0.73795154    -0.26030
C1683       C  0.82523948  0.84268978  0.70362340    -0.15270
C1684       C  0.79446249  0.82909388  0.69412209     0.37060
N1685       N  0.77680187  0.83647592  0.66420805    -0.89520
H1686       H  0.75667769  0.79708656  0.70625004     0.18170
H1687       H  0.85356236  0.85372106  0.74770639     0.18160
N1688       N  0.82467723  0.82461459  0.79429445    -0.88550
H1689       H  0.77277906  0.81505067  0.65112873     0.35540
H1690       H  0.78918709  0.85177658  0.64853209     0.40640
H1691       H  0.81414438  0.80693423  0.80883882     0.40260
H1692       H  0.81721302  0.84698102  0.80368300     0.35150
C1693       C  0.88872968  0.81028133  0.70271505    -0.26580
C1694       C  0.88672206  0.84242232  0.69048883    -0.14660
C1695       C  0.91689011  0.85975088  0.68833096     0.35970
C1696       C  0.94524685  0.84726517  0.70394926    -0.26030
C1697       C  0.94558219  0.81589674  0.71702171    -0.15270
C1698       C  0.91786109  0.79654608  0.71382247     0.37060
N1699       N  0.91920787  0.76296129  0.72292066    -0.89520
H1700       H  0.86733032  0.79558256  0.70552145     0.18170
H1701       H  0.96744685  0.86149311  0.70477887     0.18160
N1702       N  0.91865877  0.89020607  0.67132288    -0.88550
H1703       H  0.89975835  0.75030144  0.71239680     0.35540
H1704       H  0.91755516  0.76131507  0.74875965     0.40640
H1705       H  0.91751219  0.88515313  0.64602509     0.40260
H1706       H  0.94139767  0.90108279  0.67514235     0.35150
C1707       C  0.86344800  0.90653214  0.71506910    -0.26580
C1708       C  0.84851272  0.89393372  0.68586739    -0.14660
C1709       C  0.82215219  0.91297983  0.67295856     0.35970
C1710       C  0.81035061  0.93994819  0.69044253    -0.26030
C1711       C  0.82268762  0.94882740  0.72145295    -0.15270
C1712       C  0.85047936  0.93249781  0.73333065     0.37060
N1713       N  0.86452625  0.94079872  0.76489965    -0.89520
H1714       H  0.88325409  0.89377114  0.72678878     0.18170
H1715       H  0.78995092  0.95320675  0.67997749     0.18160
N1716       N  0.80636216  0.90580169  0.64228183    -0.88550
H1717       H  0.88595766  0.92768728  0.76924406     0.35540
H1718       H  0.84796594  0.93360174  0.78327874     0.40640
H1719       H  0.80915750  0.92588341  0.62674306     0.40260
H1720       H  0.78125004  0.90393785  0.64683601     0.35150
C1721       C  0.84297163  0.44436936  0.20283743    -0.26580
C1722       C  0.80997219  0.44592585  0.21257837    -0.14660
C1723       C  0.79013628  0.41834038  0.20789493     0.35970
C1724       C  0.80393225  0.39037380  0.19466533    -0.26030
C1725       C  0.83793406  0.38664429  0.18919866    -0.15270
C1726       C  0.85692631  0.41545337  0.19040783     0.37060
N1727       N  0.88993932  0.41609245  0.17858092    -0.89520
H1728       H  0.85813841  0.46571246  0.20509485     0.18170
H1729       H  0.78781031  0.36996654  0.19327626     0.18160
N1730       N  0.75655974  0.41623490  0.21871295    -0.88550
H1731       H  0.90490459  0.42441384  0.19776398     0.35540
H1732       H  0.89128495  0.43305568  0.15936538     0.40640
H1733       H  0.74860043  0.43664018  0.23129848     0.40260
H1734       H  0.75509755  0.39763414  0.23626201     0.35150
C1735       C  0.80405148  0.32788851  0.14818511    -0.26580
C1736       C  0.83620043  0.34100923  0.14910411    -0.14660
C1737       C  0.85116613  0.34726361  0.11782479     0.35970
C1738       C  0.83700093  0.33461303  0.08838789    -0.26030
C1739       C  0.80581943  0.32037456  0.08891763    -0.15270
C1740       C  0.78847456  0.31927857  0.11875956     0.37060
N1741       N  0.75485486  0.30913859  0.11906110    -0.89520
H1742       H  0.79027225  0.32385093  0.17064248     0.18170
H1743       H  0.84978664  0.33674358  0.06492259     0.18160
N1744       N  0.88097689  0.36543570  0.11602035    -0.88550
H1745       H  0.74537805  0.30904074  0.14317918     0.35540
H1746       H  0.75397720  0.28548481  0.11020604     0.40640
H1747       H  0.87509869  0.38928393  0.12190666     0.40260
H1748       H  0.88981879  0.36590329  0.09166428     0.35150
C1749       C  0.83686010  0.29472246  0.20450122    -0.26580
C1750       C  0.83699299  0.32813683  0.21078399    -0.14660
C1751       C  0.82448824  0.33799341  0.24186684     0.35970
C1752       C  0.80387292  0.31726786  0.25936445    -0.26030
C1753       C  0.79666220  0.28550950  0.24822788    -0.15270
C1754       C  0.81762881  0.27327848  0.22265096     0.37060
N1755       N  0.81977554  0.23991070  0.21308200    -0.89520
H1756       H  0.84927943  0.28528346  0.18304797     0.18170
H1757       H  0.79421278  0.32648314  0.28246780     0.18160
N1758       N  0.83333041  0.36824194  0.25661694    -0.88550
H1759       H  0.81347500  0.23816505  0.18802038     0.35540
H1760       H  0.80321185  0.22576107  0.22566723     0.40640
H1761       H  0.84554765  0.36333449  0.27883739     0.40260
H1762       H  0.81192597  0.38074140  0.26265900     0.35150
C1763       C  0.90228734  0.35907715  0.21854905    -0.26580
C1764       C  0.88873714  0.34558091  0.18930843    -0.14660
C1765       C  0.90679565  0.31935577  0.17500619     0.35970
C1766       C  0.93503735  0.30709851  0.19075967    -0.26030
C1767       C  0.94647760  0.31951563  0.22096967    -0.15270
C1768       C  0.93081081  0.34724480  0.23383329     0.37060
N1769       N  0.94277732  0.36262181  0.26340504    -0.89520
H1770       H  0.88925273  0.37795018  0.23136765     0.18170
H1771       H  0.94716197  0.28638463  0.17983654     0.18160
N1772       N  0.89614227  0.30341734  0.14544417    -0.88550
H1773       H  0.92760399  0.38176023  0.27049484     0.35540
H1774       H  0.96541008  0.37291059  0.25756924     0.40640
H1775       H  0.89366509  0.27872235  0.15038568     0.40260
H1776       H  0.91457844  0.30585190  0.12761068     0.35150
C1777       C  0.18577310  0.41461717  0.84837189    -0.26580
C1778       C  0.20128083  0.38603095  0.83677281    -0.14660
C1779       C  0.22785936  0.39113167  0.81378085     0.35970
C1780       C  0.23082332  0.42013633  0.79704263    -0.26030
C1781       C  0.21691992  0.44798052  0.80931024    -0.15270
C1782       C  0.19404245  0.44565083  0.83564509     0.37060
N1783       N  0.17870703  0.47374114  0.84963505    -0.89520
H1784       H  0.16745217  0.41281011  0.86772460     0.18170
H1785       H  0.24761187  0.42155146  0.77633691     0.18160
N1786       N  0.25503630  0.36941419  0.81029104    -0.88550
H1787       H  0.15363299  0.47196046  0.84501920     0.35540
H1788       H  0.18671777  0.49474703  0.83772952     0.40640
H1789       H  0.27606773  0.38101531  0.81887012     0.40260
H1790       H  0.25875349  0.36484784  0.78503132     0.35150
C1791       C  0.13277734  0.36113857  0.82707408    -0.26580
C1792       C  0.15495972  0.34058735  0.84414564    -0.14660
C1793       C  0.14410193  0.30759613  0.84912499     0.35970
C1794       C  0.11442385  0.29703247  0.83575375    -0.26030
C1795       C  0.09434209  0.31691974  0.81662193    -0.15270
C1796       C  0.10340726  0.34976091  0.81307041     0.37060
N1797       N  0.08367204  0.37231088  0.79498088    -0.89520
H1798       H  0.13885316  0.38590694  0.82179570     0.18170
H1799       H  0.10795166  0.27181861  0.83904641     0.18160
N1800       N  0.16274778  0.28270580  0.86553673    -0.88550
H1801       H  0.06000999  0.37195787  0.80482319     0.35540
H1802       H  0.08294233  0.36535352  0.77008705     0.40640
H1803       H  0.14916704  0.27468388  0.88596279     0.40260
H1804       H  0.18485298  0.29035091  0.87496418     0.35150
C1805       C  0.23690839  0.30863647  0.84665905    -0.26580
C1806       C  0.21167977  0.32615784  0.83155404    -0.14660
C1807       C  0.20809548  0.32279581  0.79670148     0.35970
C1808       C  0.23117966  0.30539584  0.77852655    -0.26030
C1809       C  0.25663668  0.28740914  0.79355093    -0.15270
C1810       C  0.26028132  0.29170418  0.82865153     0.37060
N1811       N  0.28843935  0.28152339  0.84698968    -0.89520
H1812       H  0.23994214  0.30823782  0.87309528     0.18170
H1813       H  0.22850991  0.30610860  0.75197209     0.18160
N1814       N  0.18282929  0.33954328  0.77903330    -0.88550
H1815       H  0.28007922  0.26885231  0.86768337     0.35540
H1816       H  0.29967851  0.30207426  0.85685253     0.40640
H1817       H  0.19370483  0.35498639  0.76166959     0.40260
H1818       H  0.16902889  0.32244025  0.76611149     0.35150
C1819       C  0.24340919  0.34462021  0.93050913    -0.26580
C1820       C  0.22462439  0.32207424  0.94830220    -0.14660
C1821       C  0.19074181  0.32066857  0.94100062     0.35970
C1822       C  0.17835738  0.33715595  0.91306046    -0.26030
C1823       C  0.19970755  0.35128959  0.88946410    -0.15270
C1824       C  0.23132631  0.35954406  0.90161919     0.37060
N1825       N  0.25275587  0.38012933  0.88319694    -0.89520
H1826       H  0.26867800  0.34880481  0.93724435     0.18170
H1827       H  0.15256034  0.33481679  0.90791764     0.18160
N1828       N  0.16835291  0.30225731  0.96076838    -0.88550
H1829       H  0.25906581  0.39963543  0.89833878     0.35540
H1830       H  0.27411620  0.36720473  0.87792077     0.40640
H1831       H  0.17063722  0.30949593  0.98550661     0.40260
H1832       H  0.17424056  0.27777365  0.95877389     0.35150
C1833       C  0.84643210  0.62281254  0.85721540    -0.26580
C1834       C  0.84890089  0.64994114  0.83608199    -0.14660
C1835       C  0.84819472  0.64315914  0.80101705     0.35970
C1836       C  0.83791516  0.61317898  0.78965167    -0.26030
C1837       C  0.82828659  0.58892206  0.81142176    -0.15270
C1838       C  0.83464972  0.59287043  0.84572085     0.37060
N1839       N  0.82940189  0.56745215  0.86951634    -0.89520
H1840       H  0.85221708  0.62516961  0.88329416     0.18170
H1841       H  0.83516096  0.60977663  0.76310738     0.18160
N1842       N  0.85741681  0.66542880  0.77549930    -0.88550
H1843       H  0.85185714  0.56255716  0.88082194     0.35540
H1844       H  0.82252485  0.54601415  0.85792343     0.40640
H1845       H  0.87921142  0.67723960  0.78089097     0.40260
H1846       H  0.83791017  0.68046347  0.76925857     0.35150
C1847       C  0.77836197  0.72677979  0.80629806    -0.26580
C1848       C  0.79344532  0.75128455  0.78756636    -0.14660
C1849       C  0.82764123  0.74902021  0.78415289     0.35970
C1850       C  0.84540756  0.72921218  0.80528731    -0.26030
C1851       C  0.83090706  0.70763595  0.82846303    -0.15270
C1852       C  0.79639479  0.70473726  0.82541924     0.37060
N1853       N  0.77917724  0.67800321  0.83880787    -0.89520
H1854       H  0.75193138  0.72494038  0.80649928     0.18170
H1855       H  0.87099081  0.72820766  0.79926175     0.18160
N1856       N  0.84479497  0.76355062  0.75713320    -0.88550
H1857       H  0.76972339  0.66482029  0.81907000     0.35540
H1858       H  0.75938521  0.68706168  0.85241363     0.40640
H1859       H  0.85486179  0.74491234  0.74299059     0.40260
H1860       H  0.86393010  0.77734167  0.76682948     0.35150
C1861       C  0.86081411  0.70578016  0.91206789    -0.26580
C1862       C  0.84135814  0.68844596  0.88889880    -0.14660
C1863       C  0.81031197  0.67848132  0.90224918     0.35970
C1864       C  0.79646158  0.69491384  0.92950894    -0.26030
C1865       C  0.81367964  0.71868391  0.94675403    -0.15270
C1866       C  0.84718624  0.72222871  0.93949331     0.37060
N1867       N  0.86743955  0.74236299  0.95998290    -0.89520
H1868       H  0.88689087  0.70757639  0.90890581     0.18170
H1869       H  0.77208746  0.68836508  0.93763596     0.18160
N1870       N  0.79576896  0.64810602  0.89364224    -0.88550
H1871       H  0.89144419  0.74288258  0.95105610     0.35540
H1872       H  0.86832897  0.73182981  0.98357446     0.40640
H1873       H  0.77033109  0.65050039  0.89319373     0.40260
H1874       H  0.80053529  0.63206473  0.91313780     0.35150
C1875       C  0.94315900  0.69342135  0.81936299    -0.26580
C1876       C  0.94616992  0.72723593  0.81974794    -0.14660
C1877       C  0.92345858  0.74512033  0.83890171     0.35970
C1878       C  0.89659520  0.72958102  0.85302638    -0.26030
C1879       C  0.88977623  0.69638550  0.84727951    -0.15270
C1880       C  0.91608346  0.67773592  0.83409138     0.37060
N1881       N  0.91586225  0.64316483  0.83534360    -0.89520
H1882       H  0.96180076  0.67899388  0.80727087     0.18170
H1883       H  0.87804952  0.74487458  0.86412441     0.18160
N1884       N  0.92494764  0.77958431  0.84209174    -0.88550
H1885       H  0.93631869  0.63561975  0.84881380     0.35540
H1886       H  0.91828688  0.63439334  0.81113774     0.40640
H1887       H  0.92492911  0.79002201  0.81843425     0.40260
H1888       H  0.94626090  0.78584655  0.85478451     0.35150
C1889       C  0.41997582  0.17482257  0.84101274    -0.26580
C1890       C  0.39238784  0.19293964  0.85089133    -0.14660
C1891       C  0.39590932  0.22730051  0.85158138     0.35970
C1892       C  0.42336113  0.24211195  0.83735224    -0.26030
C1893       C  0.44788529  0.22374724  0.82231557    -0.15270
C1894       C  0.44706349  0.18978227  0.82555700     0.37060
N1895       N  0.47349720  0.17060251  0.81270440    -0.89520
H1896       H  0.41966465  0.14877277  0.84331075     0.18170
H1897       H  0.42456034  0.26827638  0.83648829     0.18160
N1898       N  0.37101318  0.24735169  0.86583552    -0.88550
H1899       H  0.46908959  0.14602058  0.81675613     0.35540
H1900       H  0.49449172  0.17646315  0.82617772     0.40640
H1901       H  0.36310876  0.26353496  0.84771364     0.40260
H1902       H  0.38158894  0.26089498  0.88488304     0.35150
C1903       C  0.34292322  0.10712885  0.79522195    -0.26580
C1904       C  0.32333994  0.08693631  0.81455564    -0.14660
C1905       C  0.32603526  0.08944081  0.84944103     0.35970
C1906       C  0.34447545  0.11503057  0.86334659    -0.26030
C1907       C  0.35618940  0.14087309  0.84358714    -0.15270
C1908       C  0.36030607  0.13286920  0.80916800     0.37060
N1909       N  0.38394965  0.14841088  0.78838415    -0.89520
H1910       H  0.34464208  0.10328786  0.76867017     0.18170
H1911       H  0.34789537  0.11537265  0.88988673     0.18160
N1912       N  0.31067891  0.06596969  0.87066678    -0.88550
H1913       H  0.37253204  0.15536711  0.76627663     0.35540
H1914       H  0.40169025  0.13128253  0.78202791     0.40640
H1915       H  0.28546356  0.06981522  0.86946700     0.40260
H1916       H  0.31716195  0.06991494  0.89542029     0.35150
C1917       C  0.34338422  0.20539649  0.80285614    -0.26580
C1918       C  0.33296648  0.19665151  0.83512240    -0.14660
C1919       C  0.30038955  0.20667630  0.84309081     0.35970
C1920       C  0.28100381  0.22242363  0.81940402    -0.26030
C1921       C  0.29349939  0.23466346  0.78961597    -0.15270
C1922       C  0.32404629  0.22164532  0.77992001     0.37060
N1923       N  0.33579813  0.22314782  0.74656716    -0.89520
H1924       H  0.36818429  0.20177504  0.79510864     0.18170
H1925       H  0.25780372  0.23052578  0.82804722     0.18160
N1926       N  0.28790352  0.20681632  0.87608125    -0.88550
H1927       H  0.33887088  0.19956102  0.73781634     0.35540
H1928       H  0.35862886  0.23452918  0.74651191     0.40640
H1929       H  0.30042046  0.22490964  0.88887362     0.40260
H1930       H  0.26296649  0.21225900  0.87748411     0.35150
C1931       C  0.32134188  0.16625591  0.91032184    -0.26580
C1932       C  0.35031346  0.17940600  0.89631790    -0.14660
C1933       C  0.36901274  0.19835580  0.91906133     0.35970
C1934       C  0.35270435  0.21536866  0.94448978    -0.26030
C1935       C  0.31984664  0.20902788  0.95189410    -0.15270
C1936       C  0.30607884  0.18061203  0.93817935     0.37060
N1937       N  0.27432514  0.16954493  0.94837000    -0.89520
H1938       H  0.30637032  0.14988579  0.89606316     0.18170
H1939       H  0.36577940  0.23354218  0.95849881     0.18160
N1940       N  0.40402978  0.20016354  0.91687056    -0.88550
H1941       H  0.27024141  0.14611971  0.93959759     0.35540
H1942       H  0.25698057  0.18433824  0.93684363     0.40640
H1943       H  0.41316295  0.17687508  0.92084028     0.40260
H1944       H  0.41351849  0.21475151  0.93569738     0.35150
C1945       C  0.62479526  0.84061343  0.85782998    -0.26580
C1946       C  0.65013459  0.85275871  0.83700909    -0.14660
C1947       C  0.64190584  0.85478655  0.80258289     0.35970
C1948       C  0.61512115  0.83764464  0.78996445    -0.26030
C1949       C  0.59422281  0.82006992  0.81058651    -0.15270
C1950       C  0.59812668  0.82328811  0.84523215     0.37060
N1951       N  0.57551428  0.80947064  0.86842638    -0.89520
H1952       H  0.62643766  0.84247746  0.88453471     0.18170
H1953       H  0.61084374  0.83812375  0.76342062     0.18160
N1954       N  0.65853826  0.87570192  0.78009987    -0.88550
H1955       H  0.57639086  0.78431755  0.86646470     0.35540
H1956       H  0.55198590  0.81756550  0.86261982     0.40640
H1957       H  0.66617219  0.86200508  0.75969138     0.40260
H1958       H  0.64181847  0.89272608  0.77115568     0.35150
C1959       C  0.73595326  0.82136126  0.84687924    -0.26580
C1960       C  0.71281566  0.84192524  0.83142032    -0.14660
C1961       C  0.71855482  0.84706033  0.79718759     0.35970
C1962       C  0.73194113  0.82206950  0.77906578    -0.26030
C1963       C  0.75137860  0.79780119  0.79395656    -0.15270
C1964       C  0.75440561  0.79897697  0.82914877     0.37060
N1965       N  0.77627816  0.77884277  0.84770556    -0.89520
H1966       H  0.74049287  0.82237448  0.87323822     0.18170
H1967       H  0.73113677  0.82471235  0.75242799     0.18160
N1968       N  0.72630468  0.87837475  0.78382331    -0.88550
H1969       H  0.76249806  0.76544140  0.86474654     0.35540
H1970       H  0.79220684  0.79356251  0.86119536     0.40640
H1971       H  0.74969551  0.88464665  0.79200974     0.40260
H1972       H  0.71046470  0.89632232  0.79142297     0.35150
C1973       C  0.72874757  0.90255077  0.85886157    -0.26580
C1974       C  0.69553030  0.89599328  0.85194694    -0.14660
C1975       C  0.67642744  0.92225851  0.83987006     0.35970
C1976       C  0.69240020  0.94907865  0.82551957    -0.26030
C1977       C  0.72668970  0.95193205  0.82648903    -0.15270
C1978       C  0.74456112  0.92982951  0.84615753     0.37060
N1979       N  0.77926287  0.93331092  0.85066375    -0.89520
H1980       H  0.74346632  0.88434787  0.87109254     0.18170
H1981       H  0.67797026  0.96777911  0.81367393     0.18160
N1982       N  0.64166497  0.92399149  0.84420247    -0.88550
H1983       H  0.78910276  0.91317260  0.86278355     0.35540
H1984       H  0.78287170  0.95286969  0.86663193     0.40640
H1985       H  0.63349452  0.90693152  0.86139217     0.40260
H1986       H  0.63027381  0.92037901  0.82135836     0.35150
C1987       C  0.69602437  0.86436287  0.91568305    -0.26580
C1988       C  0.68681026  0.84493478  0.88835584    -0.14660
C1989       C  0.68403561  0.81055639  0.89458040     0.35970
C1990       C  0.69625448  0.79769329  0.92421348    -0.26030
C1991       C  0.71293988  0.81692189  0.94696789    -0.15270
C1992       C  0.71090775  0.85079350  0.94394905     0.37060
N1993       N  0.72389554  0.87135863  0.96945737    -0.89520
H1994       H  0.69467353  0.89039500  0.91408158     0.18170
H1995       H  0.69610992  0.77166780  0.92746928     0.18160
N1996       N  0.67336197  0.78718329  0.87029458    -0.88550
H1997       H  0.71788270  0.89550671  0.96478718     0.35540
H1998       H  0.74936729  0.87012091  0.96811679     0.40640
H1999       H  0.66961998  0.79699014  0.84690362     0.40260
H2000       H  0.69218523  0.77038148  0.86684019     0.35150
C2001       C  0.40651420  0.82847835  0.17762262    -0.26580
C2002       C  0.38433310  0.84496665  0.19875241    -0.14660
C2003       C  0.39297030  0.84540801  0.23344847     0.35970
C2004       C  0.42198255  0.83127129  0.24484286    -0.26030
C2005       C  0.44315410  0.81474103  0.22369190    -0.15270
C2006       C  0.43543289  0.81384530  0.18946729     0.37060
N2007       N  0.45625589  0.79799558  0.16596087    -0.89520
H2008       H  0.40080274  0.82424134  0.15203171     0.18170
H2009       H  0.42694665  0.83171353  0.27126739     0.18160
N2010       N  0.37102082  0.85796784  0.25813380    -0.88550
H2011       H  0.45694547  0.77333129  0.17147447     0.35540
H2012       H  0.47980871  0.80755496  0.16812369     0.40640
H2013       H  0.36467546  0.83912002  0.27424354     0.40260
H2014       H  0.38337160  0.87542638  0.27203440     0.35150
C2015       C  0.30621169  0.82774213  0.14822511    -0.26580
C2016       C  0.33728362  0.84306685  0.15148132    -0.14660
C2017       C  0.35348255  0.84989584  0.12102355     0.35970
C2018       C  0.34217107  0.83581451  0.09086060    -0.26030
C2019       C  0.31345881  0.81688126  0.09001118    -0.15270
C2020       C  0.29507531  0.81364778  0.11934750     0.37060
N2021       N  0.26446330  0.79652917  0.12138219    -0.89520
H2022       H  0.28887130  0.82666962  0.16841863     0.18170
H2023       H  0.35529634  0.84047342  0.06798112     0.18160
N2024       N  0.38006170  0.87238023  0.12019659    -0.88550
H2025       H  0.26747868  0.77736183  0.13807407     0.35540
H2026       H  0.25777120  0.78609439  0.09907139     0.40640
H2027       H  0.37306914  0.89183518  0.10521152     0.40260
H2028       H  0.39999971  0.86120882  0.10867989     0.35150
C2029       C  0.33328794  0.80043591  0.20978088    -0.26580
C2030       C  0.32732558  0.83418191  0.21169312    -0.14660
C2031       C  0.30078656  0.84400447  0.23222986     0.35970
C2032       C  0.28274433  0.82092766  0.24921663    -0.26030
C2033       C  0.28973215  0.78771712  0.24873101    -0.15270
C2034       C  0.31455238  0.77769176  0.22649509     0.37060
N2035       N  0.32128654  0.74434172  0.22054050    -0.89520
H2036       H  0.35194154  0.79123463  0.19316133     0.18170
H2037       H  0.26211986  0.82988096  0.26216677     0.18160
N2038       N  0.28959741  0.87637085  0.23623306    -0.88550
H2039       H  0.34581719  0.73987137  0.22617867     0.35540
H2040       H  0.31785023  0.73975410  0.19526763     0.40640
H2041       H  0.27878658  0.88438248  0.21438114     0.40260
H2042       H  0.30825808  0.89091588  0.24531710     0.35150
C2043       C  0.36149773  0.91171523  0.21271432    -0.26580
C2044       C  0.34287173  0.89288843  0.19026669    -0.14660
C2045       C  0.31664180  0.90989278  0.17454297     0.35970
C2046       C  0.30482303  0.93896395  0.18820356    -0.26030
C2047       C  0.31819455  0.95211643  0.21724795    -0.15270
C2048       C  0.34847752  0.93953808  0.22819444     0.37060
N2049       N  0.36538290  0.95385194  0.25575252    -0.89520
H2050       H  0.38547566  0.90406417  0.22023436     0.18170
H2051       H  0.28334189  0.94986461  0.17715944     0.18160
N2052       N  0.30040813  0.89758385  0.14582431    -0.88550
H2053       H  0.38830069  0.94310082  0.25896864     0.35540
H2054       H  0.35210687  0.94823758  0.27719393     0.40640
H2055       H  0.30246360  0.91472666  0.12683952     0.40260
H2056       H  0.27561027  0.89466946  0.15139328     0.35150
C2057       C  0.39308709  0.82228692  0.80834587    -0.26580
C2058       C  0.39173186  0.84609296  0.83395043    -0.14660
C2059       C  0.42205125  0.86117108  0.84156120     0.35970
C2060       C  0.45181293  0.84750076  0.82944614    -0.26030
C2061       C  0.45142636  0.82067189  0.80792589    -0.15270
C2062       C  0.42173762  0.80870258  0.79675207     0.37060
N2063       N  0.42072317  0.78235247  0.77338507    -0.89520
H2064       H  0.37162156  0.81339759  0.79617891     0.18170
H2065       H  0.47508661  0.85783471  0.83652531     0.18160
N2066       N  0.42268732  0.89007366  0.86119004    -0.88550
H2067       H  0.39674656  0.77690659  0.76653986     0.35540
H2068       H  0.42943869  0.76178320  0.78560078     0.40640
H2069       H  0.41226959  0.90854059  0.84700541     0.40260
H2070       H  0.44681322  0.89711472  0.86566950     0.35150
C2071       C  0.30120037  0.84032276  0.82447532    -0.26580
C2072       C  0.33186746  0.83077824  0.83739279    -0.14660
C2073       C  0.33683036  0.79649242  0.84171476     0.35970
C2074       C  0.31849254  0.77564127  0.82277721    -0.26030
C2075       C  0.29179947  0.78640254  0.80417571    -0.15270
C2076       C  0.27965981  0.81753484  0.81157051     0.37060
N2077       N  0.24544744  0.82520838  0.81065515    -0.89520
H2078       H  0.29279960  0.86504501  0.82618496     0.18170
H2079       H  0.32514726  0.75036514  0.82310381     0.18160
N2080       N  0.36231176  0.78149534  0.86096095    -0.88550
H2081       H  0.23879750  0.83385770  0.83409323     0.35540
H2082       H  0.23130916  0.80450767  0.80760709     0.40640
H2083       H  0.37878957  0.79793739  0.86984958     0.40260
H2084       H  0.37618260  0.76667783  0.84529556     0.35150
C2085       C  0.31764642  0.86275326  0.89701976    -0.26580
C2086       C  0.35038694  0.85513643  0.88769953    -0.14660
C2087       C  0.36869367  0.83835752  0.91266753     0.35970
C2088       C  0.35209241  0.82216965  0.93875714    -0.26030
C2089       C  0.31805416  0.82510860  0.94346354    -0.15270
C2090       C  0.30138991  0.84794072  0.92373521     0.37060
N2091       N  0.26728274  0.85459154  0.92921014    -0.89520
H2092       H  0.30286363  0.87747414  0.88078609     0.18170
H2093       H  0.36614079  0.80744292  0.95582824     0.18160
N2094       N  0.40367123  0.83852745  0.91411359    -0.88550
H2095       H  0.25789020  0.86959947  0.91062053     0.35540
H2096       H  0.26549413  0.86775304  0.95126698     0.40640
H2097       H  0.41159463  0.86243596  0.91570050     0.40260
H2098       H  0.41421723  0.82719327  0.89375868     0.35150
C2099       C  0.33051249  0.92496704  0.78683889    -0.26580
C2100       C  0.32014173  0.94934382  0.80823265    -0.14660
C2101       C  0.32821353  0.94661264  0.84233264     0.35970
C2102       C  0.34309023  0.91800669  0.85415206    -0.26030
C2103       C  0.34918278  0.89095425  0.83339986    -0.15270
C2104       C  0.34537398  0.89672275  0.79841068     0.37060
N2105       N  0.35589945  0.87487578  0.77319409    -0.89520
H2106       H  0.32617923  0.92740119  0.76039591     0.18170
H2107       H  0.34898521  0.91691512  0.88028422     0.18160
N2108       N  0.32212277  0.97218406  0.86570673    -0.88550
H2109       H  0.34399519  0.85287334  0.77573107     0.35540
H2110       H  0.38127879  0.87266687  0.77396713     0.40640
H2111       H  0.31345807  0.99296377  0.85399015     0.40260
H2112       H  0.34459640  0.97873957  0.87601278     0.35150
C2113       C  0.85274631  0.41311927  0.84769951    -0.26580
C2114       C  0.84139239  0.38423960  0.83258708    -0.14660
C2115       C  0.82087504  0.38833729  0.80366634     0.35970
C2116       C  0.81206560  0.41891049  0.79281425    -0.26030
C2117       C  0.82117779  0.44645935  0.80956999    -0.15270
C2118       C  0.84231690  0.44401265  0.83709667     0.37060
N2119       N  0.85369086  0.47198585  0.85467118    -0.89520
H2120       H  0.86851053  0.41153251  0.86922684     0.18890
H2121       H  0.79610765  0.42095682  0.77136304     0.18160
N2122       N  0.80734973  0.36244130  0.78475225    -0.88550
H2123       H  0.84405435  0.47094098  0.87869795     0.35540
H2124       H  0.84493121  0.49320821  0.84382066     0.40640
H2125       H  0.78184174  0.36437871  0.78510105     0.40260
H2126       H  0.81527371  0.36460946  0.76015304     0.35150
C2127       C  0.79638117  0.31909775  0.84198121    -0.26580
C2128       C  0.82914325  0.32368182  0.83275133    -0.14660
C2129       C  0.83922364  0.30783048  0.80281270     0.35970
C2130       C  0.81807593  0.28605065  0.78707874    -0.26030
C2131       C  0.78456360  0.28359792  0.79550170    -0.15270
C2132       C  0.77371898  0.30401323  0.82183157     0.37060
N2133       N  0.74015410  0.31140546  0.82918748    -0.89520
H2134       H  0.78590608  0.32988520  0.86328181     0.18170
H2135       H  0.82762238  0.27389579  0.76547983     0.18160
N2136       N  0.86890496  0.31662283  0.78583728    -0.88550
H2137       H  0.73542526  0.30513733  0.85385761     0.35540
H2138       H  0.72418619  0.29835333  0.81492241     0.40640
H2139       H  0.86767453  0.34114843  0.77985119     0.40260
H2140       H  0.87035964  0.30497765  0.76300687     0.35150
C2141       C  0.90968780  0.36200184  0.83011337    -0.26580
C2142       C  0.88678272  0.34116234  0.84565848    -0.14660
C2143       C  0.89745413  0.30860365  0.85163665     0.35970
C2144       C  0.92777795  0.29777357  0.83978489    -0.26030
C2145       C  0.94822598  0.31766987  0.82082384    -0.15270
C2146       C  0.93954145  0.35064745  0.81731370     0.37060
N2147       N  0.96011626  0.37333152  0.80036943    -0.89520
H2148       H  0.90394069  0.38692805  0.82508729     0.18170
H2149       H  0.93400167  0.27253011  0.84328006     0.18160
N2150       N  0.87626792  0.28526514  0.86694554    -0.88550
H2151       H  0.96135795  0.36721330  0.77526878     0.35540
H2152       H  0.98350065  0.37230160  0.81075342     0.40640
H2153       H  0.88834528  0.27549883  0.88750635     0.40260
H2154       H  0.87228528  0.26646343  0.85011390     0.35150
C2155       C  0.79553309  0.35024878  0.92908388    -0.26580
C2156       C  0.81144891  0.32547932  0.94647375    -0.14660
C2157       C  0.84497783  0.32069108  0.93999380     0.35970
C2158       C  0.85939185  0.33585020  0.91219932    -0.26030
C2159       C  0.84033052  0.35267468  0.88844555    -0.15270
C2160       C  0.80989253  0.36497697  0.90124236     0.37060
N2161       N  0.79096729  0.38982989  0.88549344    -0.89520
H2162       H  0.77085214  0.35712621  0.93587088     0.18170
H2163       H  0.88521312  0.33230749  0.90834524     0.18160
N2164       N  0.86418209  0.30010796  0.96113179    -0.88550
H2165       H  0.78514854  0.38388462  0.86109968     0.35540
H2166       H  0.80359922  0.41165842  0.88662408     0.40640
H2167       H  0.86501697  0.31089240  0.98456732     0.40260
H2168       H  0.88830496  0.29873372  0.95263828     0.35150
loop_ 
_geom_bond_atom_site_label_1 
_geom_bond_atom_site_label_2 
_geom_bond_distance 
_geom_bond_site_symmetry_2 
_ccdc_geom_bond_type 
C1         C2114   1.581       .  S
C1         C2128   1.569       .  S
C1         C2142   1.582       .  S
C1         C2159   1.597       .  S
C2         C2058   1.586       .  S
C2         C2072   1.560       .  S
C2         C2086   1.596       .  S
C2         C2103   1.589       .  S
C3         C2002   1.595       .  S
C3         C2016   1.593       .  S
C3         C2030   1.568       .  S
C3         C2044   1.587       .  S
C4         C1946   1.590       .  S
C4         C1960   1.581       .  S
C4         C1974   1.561       .  S
C4         C1988   1.581       .  S
C5         C1890   1.571       .  S
C5         C1907   1.595       .  S
C5         C1918   1.596       .  S
C5         C1932   1.600       .  S
C6         C1834   1.567       .  S
C6         C1851   1.587       .  S
C6         C1862   1.614       .  S
C6         C1879   1.589       .  S
C7         C1778   1.588       .  S
C7         C1792   1.586       .  S
C7         C1806   1.554       .  S
C7         C1823   1.583       .  S
C8         C1725   1.577       .  S
C8         C1736   1.578       .  S
C8         C1750   1.560       .  S
C8         C1764   1.575       .  S
C9         C1666   1.566       .  S
C9         C1683   1.573       .  S
C9         C1694   1.584       .  S
C9         C1708   1.582       .  S
C10        C1613   1.611       .  S
C10        C1624   1.605       .  S
C10        C1638   1.568       .  S
C10        C1655   1.576       .  S
C11        C1554   1.578       .  S
C11        C1571   1.595       .  S
C11        C1582   1.593       .  S
C11        C1596   1.572       .  S
C12        C1498   1.600       .  S
C12        C1512   1.579       .  S
C12        C1526   1.548       .  S
C12        C1540   1.596       .  S
C13        C1445   1.603       .  S
C13        C1459   1.562       .  S
C13        C1470   1.574       .  S
C13        C1487   1.609       .  S
C14        C1389   1.587       .  S
C14        C1400   1.572       .  S
C14        C1417   1.585       .  S
C14        C1428   1.623       .  S
C15        C1330   1.581       .  S
C15        C1347   1.594       .  S
C15        C1361   1.596       .  S
C15        C1372   1.570       .  S
C16        C1274   1.583       .  S
C16        C1288   1.581       .  S
C16        C1302   1.571       .  S
C16        C1316   1.589       .  S
O17         Ni25   1.926       .  S
O17          C27   1.286       .  A
O18         Ni25   1.924       .  S
O18          C28   1.284       .  A
O19         Ni25   1.925       .  S
O19          C29   1.282       .  A
O20         Ni25   1.929       .  S
O20          C30   1.282       .  A
O21         Ni26   1.929       .  S
O21          C30   1.285       .  A
O22         Ni26   1.930       .  S
O22          C29   1.285       .  A
O23         Ni26   1.932       .  S
O23          C28   1.282       .  A
O24         Ni26   1.925       .  S
O24          C27   1.281       .  A
Ni25        Ni26   2.381       .  S
C27        C1246   1.502       .  S
C28        C2005   1.496       .  S
C29        C1263   1.496       .  S
C30        C1386   1.492       .  S
O31         Ni39   1.916       .  S
O31          C41   1.280       .  A
O32         Ni39   1.916       .  S
O32          C42   1.281       .  A
O33         Ni39   1.918       .  S
O33          C43   1.280       .  A
O34         Ni39   1.926       .  S
O34          C44   1.283       .  A
O35         Ni40   1.925       .  S
O35          C44   1.283       .  A
O36         Ni40   1.917       .  S
O36          C43   1.282       .  A
O37         Ni40   1.920       .  S
O37          C42   1.282       .  A
O38         Ni40   1.922       .  S
O38          C41   1.281       .  A
Ni39        Ni40   2.384       .  S
C41        C2061   1.469       .  S
C42        C1232   1.487       .  S
C43        C1949   1.487       .  S
C44        C1218   1.500       .  S
O45         Ni53   1.917       .  S
O45          C55   1.281       .  A
O46         Ni53   1.918       .  S
O46          C56   1.278       .  A
O47         Ni53   1.947       .  S
O47          C57   1.288       .  A
O48         Ni53   1.935       .  S
O48          C58   1.287       .  A
O49         Ni54   1.900       .  S
O49          C58   1.276       .  A
O50         Ni54   1.905       .  S
O50          C57   1.278       .  A
O51         Ni54   1.922       .  S
O51          C56   1.284       .  A
O52         Ni54   1.925       .  S
O52          C55   1.283       .  A
Ni53        Ni54   2.383       .  S
C55        C1193   1.493       .  S
C56        C1176   1.475       .  S
C57        C1207   1.496       .  S
C58        C1333   1.490       .  S
C59        C1120   1.594       .  S
C59        C1137   1.584       .  S
C59        C1148   1.572       .  S
C59        C1162   1.595       .  S
C60        C1081   1.593       .  S
C60        C1092   1.567       .  S
C60        C1109   1.590       .  S
C60        C1204   1.569       .  S
O61         Ni69   1.917       .  S
O61          C71   1.277       .  A
O62         Ni69   1.920       .  S
O62          C72   1.282       .  A
O63         Ni69   1.934       .  S
O63          C73   1.285       .  A
O64         Ni69   1.945       .  S
O64          C74   1.288       .  A
O65         Ni70   1.922       .  S
O65          C74   1.282       .  A
O66         Ni70   1.908       .  S
O66          C73   1.278       .  A
O67         Ni70   1.926       .  S
O67          C72   1.282       .  A
O68         Ni70   1.922       .  S
O68          C71   1.285       .  A
Ni69        Ni70   2.385       .  S
C71        C1064   1.474       .  S
C72        C1722   1.484       .  S
C73        C1095   1.486       .  S
C74        C1557   1.503       .  S
C75        C1036   1.574       .  S
C75        C1050   1.556       .  S
C75        C1067   1.586       .  S
C75        C1249   1.577       .  S
C76        C1022   1.535       .  S
C76        C1053   1.555       .  S
C76        C1414   1.551       .  S
C76        C1585   1.561       .  S
O77         Ni85   1.908       .  S
O77          C87   1.280       .  A
O78         Ni85   1.907       .  S
O78          C88   1.278       .  A
O79         Ni85   1.946       .  S
O79          C89   1.286       .  A
O80         Ni85   1.941       .  S
O80          C90   1.286       .  A
O81         Ni86   1.891       .  S
O81          C90   1.274       .  A
O82         Ni86   1.892       .  S
O82          C89   1.275       .  A
O83         Ni86   1.939       .  S
O83          C88   1.287       .  A
O84         Ni86   1.941       .  S
O84          C87   1.286       .  A
Ni85        Ni86   2.382       .  S
C87        C1008   1.497       .  S
C88         C994   1.499       .  S
C89        C1039   1.487       .  S
C90        C1669   1.471       .  S
C91         C969   1.586       .  S
C91         C983   1.569       .  S
C91        C1011   1.576       .  S
C91        C1235   1.568       .  S
C92         C980   1.562       .  S
C92        C1680   1.562       .  S
C92        C1848   1.550       .  S
C92        C1963   1.554       .  S
O93        Ni101   1.909       .  S
O93         C103   1.279       .  A
O94        Ni101   1.912       .  S
O94         C104   1.278       .  A
O95        Ni101   1.922       .  S
O95         C105   1.284       .  A
O96        Ni101   1.929       .  S
O96         C106   1.282       .  A
O97        Ni102   1.915       .  S
O97         C106   1.281       .  A
O98        Ni102   1.910       .  S
O98         C105   1.278       .  A
O99        Ni102   1.924       .  S
O99         C104   1.284       .  A
O100       Ni102   1.919       .  S
O100        C103   1.281       .  A
Ni101      Ni102   2.391       .  S
C103       C2117   1.464       .  S
C104        C966   1.472       .  S
C105       C1837   1.478       .  S
C106        C955   1.481       .  S
C107        C924   1.591       .  S
C107        C941   1.594       .  S
C107        C952   1.566       .  S
C107       C1190   1.594       .  S
C108        C938   1.567       .  S
C108       C1358   1.563       .  S
C108       C1473   1.540       .  S
C108       C2131   1.568       .  S
O109       Ni117   1.931       .  S
O109        C119   1.284       .  A
O110       Ni117   1.939       .  S
O110        C120   1.285       .  A
O111       Ni117   1.927       .  S
O111        C121   1.283       .  A
O112       Ni117   1.922       .  S
O112        C122   1.282       .  A
O113       Ni118   1.925       .  S
O113        C122   1.282       .  A
O114       Ni118   1.924       .  S
O114        C121   1.282       .  A
O115       Ni118   1.923       .  S
O115        C120   1.283       .  A
O116       Ni118   1.931       .  S
O116        C119   1.283       .  A
Ni117      Ni118   2.382       .  S
C119        C913   1.501       .  S
C120       C1442   1.500       .  S
C121        C927   1.494       .  S
C122       C1893   1.483       .  S
C123        C857   1.558       .  S
C123        C868   1.569       .  S
C123        C882   1.604       .  S
C123        C896   1.584       .  S
C124        C812   1.587       .  S
C124        C826   1.605       .  S
C124        C843   1.606       .  S
C124        C910   1.602       .  S
O125       Ni133   1.957       .  S
O125        C135   1.289       .  A
O126       Ni133   1.948       .  S
O126        C136   1.288       .  A
O127       Ni133   1.912       .  S
O127        C137   1.280       .  A
O128       Ni133   1.915       .  S
O128        C138   1.278       .  A
O129       Ni134   1.932       .  S
O129        C138   1.285       .  A
O130       Ni134   1.935       .  S
O130        C137   1.284       .  A
O131       Ni134   1.896       .  S
O131        C136   1.277       .  A
O132       Ni134   1.906       .  S
O132        C135   1.278       .  A
Ni133      Ni134   2.384       .  S
C135        C829   1.495       .  S
C136       C1501   1.495       .  S
C137        C801   1.486       .  S
C138       C1781   1.474       .  S
C139        C770   1.573       .  S
C139        C784   1.555       .  S
C139        C798   1.573       .  S
C139       C1221   1.580       .  S
C140        C787   1.576       .  S
C140       C1305   1.604       .  S
C140       C1529   1.556       .  S
C140       C2075   1.523       .  S
O141       Ni149   1.909       .  S
O141        C151   1.278       .  A
O142       Ni149   1.913       .  S
O142        C152   1.281       .  A
O143       Ni149   1.907       .  S
O143        C153   1.281       .  A
O144       Ni149   1.912       .  S
O144        C154   1.279       .  A
O145       Ni150   1.944       .  S
O145        C154   1.287       .  A
O146       Ni150   1.940       .  S
O146        C153   1.285       .  A
O147       Ni150   1.932       .  S
O147        C152   1.283       .  A
O148       Ni150   1.922       .  S
O148        C151   1.281       .  A
Ni149      Ni150   2.383       .  S
C151        C773   1.465       .  S
C152       C1610   1.491       .  S
C153        C759   1.492       .  S
C154       C1277   1.507       .  S
C155        C700   1.587       .  S
C155        C717   1.582       .  S
C155        C728   1.577       .  S
C155        C742   1.566       .  S
C156        C672   1.571       .  S
C156        C686   1.578       .  S
C156        C756   1.608       .  S
C156       C1260   1.585       .  S
C157        C616   1.587       .  S
C157        C630   1.577       .  S
C157        C644   1.571       .  S
C157        C658   1.561       .  S
O158       Ni166   1.927       .  S
O158        C168   1.283       .  A
O159       Ni166   1.929       .  S
O159        C169   1.282       .  A
O160       Ni166   1.922       .  S
O160        C170   1.283       .  A
O161       Ni166   1.919       .  S
O161        C171   1.281       .  A
O162       Ni167   1.931       .  S
O162        C171   1.282       .  A
O163       Ni167   1.930       .  S
O163        C170   1.284       .  A
O164       Ni167   1.919       .  S
O164        C169   1.283       .  A
O165       Ni167   1.923       .  S
O165        C168   1.282       .  A
Ni166      Ni167   2.385       .  S
C168        C647   1.492       .  S
C169        C703   1.492       .  S
C170        C675   1.491       .  S
C171        C602   1.478       .  S
C172        C689   1.541       .  S
C172        C745   1.555       .  S
C172       C1641   1.575       .  S
C172       C2033   1.569       .  S
O173       Ni181   1.938       .  S
O173        C183   1.287       .  A
O174       Ni181   1.933   1_655  S
O174        C184   1.285       .  A
O175       Ni181   1.916   1_655  S
O175        C185   1.280       .  A
O176       Ni181   1.915       .  S
O176        C186   1.278       .  A
O177       Ni182   1.915       .  S
O177        C186   1.282       .  A
O178       Ni182   1.919   1_655  S
O178        C185   1.280       .  A
O179       Ni182   1.910   1_655  S
O179        C184   1.280       .  A
O180       Ni182   1.915       .  S
O180        C183   1.279       .  A
Ni181      Ni182   2.386       .  S
C183       C1627   1.503       .  S
C184       C1599   1.489       .  S
C185        C591   1.468       .  S
C186        C731   1.471       .  S
O187       Ni195   1.927   1_556  S
O187        C197   1.284       .  A
O188       Ni195   1.931       .  S
O188        C198   1.285       .  A
O189       Ni195   1.918       .  S
O189        C199   1.281       .  A
O190       Ni195   1.914   1_556  S
O190        C200   1.281       .  A
O191       Ni196   1.943   1_556  S
O191        C200   1.287       .  A
O192       Ni196   1.938       .  S
O192        C199   1.284       .  A
O193       Ni196   1.931       .  S
O193        C198   1.284       .  A
O194       Ni196   1.940   1_556  S
O194        C197   1.285       .  A
Ni195      Ni196   2.379       .  S
C197       C2089   1.508       .  S
C198        C714   1.506       .  S
C199       C2019   1.483       .  S
C200       C1543   1.502       .  S
C201        C840   1.591       .  S
C201        C899   1.586       .  S
C201       C1809   1.576       .  S
C201       C1921   1.570       .  S
O202       Ni210   1.926       .  S
O202        C212   1.281       .  A
O203       Ni210   1.927   1_565  S
O203        C213   1.284       .  A
O204       Ni210   1.928   1_565  S
O204        C214   1.282       .  A
O205       Ni210   1.927       .  S
O205        C215   1.284       .  A
O206       Ni211   1.925       .  S
O206        C215   1.282       .  A
O207       Ni211   1.927   1_565  S
O207        C214   1.284       .  A
O208       Ni211   1.927   1_565  S
O208        C213   1.280       .  A
O209       Ni211   1.922       .  S
O209        C212   1.284       .  A
Ni210      Ni211   2.384       .  S
C212       C1904   1.493       .  S
C213       C1319   1.481       .  S
C214       C2100   1.491       .  S
C215        C885   1.495       .  S
O216       Ni224   1.925       .  S
O216        C226   1.281       .  A
O217       Ni224   1.915   1_655  S
O217        C227   1.281       .  A
O218       Ni224   1.921   1_655  S
O218        C228   1.281       .  A
O219       Ni224   1.913       .  S
O219        C229   1.283       .  A
O220       Ni225   1.920       .  S
O220        C229   1.280       .  A
O221       Ni225   1.926   1_655  S
O221        C228   1.284       .  A
O222       Ni225   1.926   1_655  S
O222        C227   1.281       .  A
O223       Ni225   1.928       .  S
O223        C226   1.286       .  A
Ni224      Ni225   2.383       .  S
C226       C1795   1.500       .  S
C227       C1375   1.478       .  S
C228       C2145   1.495       .  S
C229        C871   1.485       .  S
O230       Ni238   1.923       .  S
O230        C240   1.283       .  A
O231       Ni238   1.922       .  S
O231        C241   1.284       .  A
O232       Ni238   1.924       .  S
O232        C242   1.281       .  A
O233       Ni238   1.913       .  S
O233        C243   1.279       .  A
O234       Ni239   1.926       .  S
O234        C243   1.284       .  A
O235       Ni239   1.933       .  S
O235        C242   1.286       .  A
O236       Ni239   1.924       .  S
O236        C241   1.282       .  A
O237       Ni239   1.928       .  S
O237        C240   1.283       .  A
Ni238      Ni239   2.380       .  S
C240        C815   1.499       .  S
C241        C574   1.493       .  S
C242        C633   1.505       .  S
C243        C854   1.486       .  S
C244        C560   1.559       .  S
C244       C1106   1.559       .  S
C244       C1165   1.540       .  S
C244       C1753   1.572       .  S
O245       Ni253   1.906       .  S
O245        C255   1.279       .  A
O246       Ni253   1.920   1_565  S
O246        C256   1.281       .  A
O247       Ni253   1.946   1_565  S
O247        C257   1.287       .  A
O248       Ni253   1.951       .  S
O248        C258   1.289       .  A
O249       Ni254   1.906       .  S
O249        C258   1.278       .  A
O250       Ni254   1.900   1_565  S
O250        C257   1.278       .  A
O251       Ni254   1.953   1_565  S
O251        C256   1.289       .  A
O252       Ni254   1.942       .  S
O252        C255   1.287       .  A
Ni253      Ni254   2.380       .  S
C255        C546   1.497       .  S
C256       C1431   1.511       .  S
C257        C535   1.493       .  S
C258       C1134   1.496       .  S
O259       Ni267   1.921   1_556  S
O259        C269   1.282       .  A
O260       Ni267   1.921       .  S
O260        C270   1.283       .  A
O261       Ni267   1.923       .  S
O261        C271   1.283       .  A
O262       Ni267   1.924   1_556  S
O262        C272   1.282       .  A
O263       Ni268   1.925   1_556  S
O263        C272   1.284       .  A
O264       Ni268   1.926       .  S
O264        C271   1.281       .  A
O265       Ni268   1.935       .  S
O265        C270   1.284       .  A
O266       Ni268   1.930   1_556  S
O266        C269   1.284       .  A
Ni267      Ni268   2.382       .  S
C269       C2156   1.496       .  S
C270       C1151   1.500       .  S
C271       C1739   1.479       .  S
C272       C1484   1.500       .  S
O273       Ni281   1.916       .  S
O273        C283   1.278       .  A
O274       Ni281   1.911       .  S
O274        C284   1.280       .  A
O275       Ni281   1.932       .  S
O275        C285   1.284       .  A
O276       Ni281   1.933       .  S
O276        C286   1.287       .  A
O277       Ni282   1.918       .  S
O277        C286   1.280       .  A
O278       Ni282   1.916       .  S
O278        C285   1.281       .  A
O279       Ni282   1.927       .  S
O279        C284   1.283       .  A
O280       Ni282   1.929       .  S
O280        C283   1.284       .  A
Ni281      Ni282   2.383       .  S
C283        C619   1.476       .  S
C284       C1123   1.488       .  S
C285       C1078   1.493       .  S
C286        C521   1.499       .  S
C287        C476   1.615       .  S
C287        C490   1.614       .  S
C287        C507   1.560       .  S
C287        C605   1.580       .  S
C288        C434   1.583       .  S
C288        C451   1.577       .  S
C288        C462   1.568       .  S
C288        C518   1.581       .  S
C289        C392   1.594       .  S
C289        C406   1.594       .  S
C289        C420   1.569       .  S
C289        C577   1.570       .  S
C290        C423   1.544       .  S
C290        C465   1.567       .  S
C290        C504   1.575       .  S
C290        C661   1.558       .  S
O291       Ni299   1.915       .  S
O291        C301   1.280       .  A
O292       Ni299   1.905   1_655  S
O292        C302   1.281       .  A
O293       Ni299   1.936   1_655  S
O293        C303   1.285       .  A
O294       Ni299   1.929       .  S
O294        C304   1.282       .  A
O295       Ni300   1.921       .  S
O295        C304   1.281       .  A
O296       Ni300   1.921   1_655  S
O296        C303   1.282       .  A
O297       Ni300   1.939   1_655  S
O297        C302   1.284       .  A
O298       Ni300   1.949       .  S
O298        C301   1.288       .  A
Ni299      Ni300   2.380       .  S
C301        C479   1.507       .  S
C302        C378   1.495       .  S
C303       C1767   1.505       .  S
C304        C409   1.477       .  S
O305       Ni313   1.930       .  S
O305        C315   1.282       .  A
O306       Ni313   1.930   1_565  S
O306        C316   1.282       .  A
O307       Ni313   1.931   1_565  S
O307        C317   1.284       .  A
O308       Ni313   1.932       .  S
O308        C318   1.285       .  A
O309       Ni314   1.932       .  S
O309        C318   1.283       .  A
O310       Ni314   1.923   1_565  S
O310        C317   1.283       .  A
O311       Ni314   1.908   1_565  S
O311        C316   1.280       .  A
O312       Ni314   1.905       .  S
O312        C315   1.281       .  A
Ni313      Ni314   2.383       .  S
C315        C448   1.485       .  S
C316       C1652   1.474       .  S
C317       C2047   1.502       .  S
C318        C395   1.504       .  S
O319       Ni327   1.937   1_556  S
O319        C329   1.285       .  A
O320       Ni327   1.925       .  S
O320        C330   1.285       .  A
O321       Ni327   1.926       .  S
O321        C331   1.281       .  A
O322       Ni327   1.912   1_556  S
O322        C332   1.279       .  A
O323       Ni328   1.938   1_556  S
O323        C332   1.287       .  A
O324       Ni328   1.951       .  S
O324        C331   1.290       .  A
O325       Ni328   1.910       .  S
O325        C330   1.276       .  A
O326       Ni328   1.922   1_556  S
O326        C329   1.282       .  A
Ni327      Ni328   2.379       .  S
C329       C1820   1.503       .  S
C330        C437   1.470       .  S
C331        C493   1.515       .  S
C332       C1935   1.500       .  S
O333       Ni341   1.944   1_655  S
O333        C343   1.288       .  A
O334       Ni341   1.952       .  S
O334        C344   1.289       .  A
O335       Ni341   1.908       .  S
O335        C345   1.276       .  A
O336       Ni341   1.906   1_655  S
O336        C346   1.279       .  A
O337       Ni342   1.926   1_655  S
O337        C346   1.282       .  A
O338       Ni342   1.922       .  S
O338        C345   1.284       .  A
O339       Ni342   1.901       .  S
O339        C344   1.278       .  A
O340       Ni342   1.901   1_655  S
O340        C343   1.276       .  A
Ni341      Ni342   2.387       .  S
C343       C1876   1.492       .  S
C344       C1291   1.490       .  S
C345       C1515   1.466       .  S
C346       C1697   1.472       .  S
O347       Ni355   1.902   1_565  S
O347        C357   1.277       .  A
O348       Ni355   1.906       .  S
O348        C358   1.279       .  A
O349       Ni355   1.919       .  S
O349        C359   1.282       .  A
O350       Ni355   1.922   1_565  S
O350        C360   1.282       .  A
O351       Ni356   1.914   1_565  S
O351        C360   1.281       .  A
O352       Ni356   1.907       .  S
O352        C359   1.277       .  A
O353       Ni356   1.943       .  S
O353        C358   1.288       .  A
O354       Ni356   1.937   1_565  S
O354        C357   1.285       .  A
Ni355      Ni356   2.384       .  S
C357       C1977   1.488       .  S
C358       C1344   1.497       .  S
C359       C1456   1.464       .  S
C360       C1711   1.493       .  S
O361       Ni369   1.924       .  S
O361        C371   1.282       .  A
O362       Ni369   1.913   1_556  S
O362        C372   1.280       .  A
O363       Ni369   1.932   1_556  S
O363        C373   1.285       .  A
O364       Ni369   1.928       .  S
O364        C374   1.284       .  A
O365       Ni370   1.913       .  S
O365        C374   1.280       .  A
O366       Ni370   1.924   1_556  S
O366        C373   1.282       .  A
O367       Ni370   1.921   1_556  S
O367        C372   1.282       .  A
O368       Ni370   1.923       .  S
O368        C371   1.283       .  A
Ni369      Ni370   2.384       .  S
C371       C1568   1.491       .  S
C372       C1991   1.481       .  S
C373       C1865   1.497       .  S
C374       C1403   1.484       .  S
C375        C381   1.594       .  S
C375        C549   1.590       .  S
C375        C563   1.550       .  S
C375       C1179   1.585       .  S
C376        C532   1.571       .  S
C376        C588   1.577       .  S
C376        C997   1.584       .  S
C376       C1025   1.561       .  S
C377        C378   1.391       .  A
C377        C382   1.390       .  A
C377        H384   1.085       .  S
C378        C379   1.420       .  A
C379        C380   1.419       .  A
C379        N386   1.439       .  S
C380        C381   1.423       .  A
C380        H385   1.070       .  S
C381        C382   1.445       .  A
C382        N383   1.437       .  S
N383        H387   1.046       .  S
N383        H388   1.047       .  S
N386        H389   1.042       .  S
N386        H390   1.046       .  S
C391        C392   1.417       .  A
C391        C396   1.410       .  A
C391        H398   1.078       .  S
C392        C393   1.426       .  A
C393        C394   1.415       .  A
C393        N400   1.433       .  S
C394        C395   1.409       .  A
C394        H399   1.083       .  S
C395        C396   1.413       .  A
C396        N397   1.438       .  S
N397        H401   1.046       .  S
N397        H402   1.045       .  S
N400        H403   1.045       .  S
N400        H404   1.045       .  S
C405        C406   1.430       .  A
C405        C410   1.379       .  A
C405        H412   1.069       .  S
C406        C407   1.433       .  A
C407        C408   1.424       .  A
C407        N414   1.437       .  S
C408        C409   1.410       .  A
C408        H413   1.083       .  S
C409        C410   1.398       .  A
C410        N411   1.443       .  S
N411        H415   1.046       .  S
N411        H416   1.036       .  S
N414        H417   1.041       .  S
N414        H418   1.045       .  S
C419        C420   1.409       .  A
C419        C424   1.386       .  A
C419        H426   1.062       .  S
C420        C421   1.448       .  A
C421        C422   1.380       .  A
C421        N428   1.433       .  S
C422        C423   1.399       .  A
C422        H427   1.082       .  S
C423        C424   1.409       .  A
C424        N425   1.431       .  S
N425        H429   1.046       .  S
N425        H430   1.046       .  S
N428        H431   1.042       .  S
N428        H432   1.038       .  S
C433        C434   1.411       .  A
C433        C438   1.389       .  A
C433        H440   1.045       .  S
C434        C435   1.424       .  A
C435        C436   1.425       .  A
C435        N442   1.431       .  S
C436        C437   1.409       .  A
C436        H441   1.083       .  S
C437        C438   1.385       .  A
C438        N439   1.443       .  S
N439        H443   1.036       .  S
N439        H444   1.045       .  S
N442        H445   1.045       .  S
N442        H446   1.045       .  S
C447        C448   1.388       .  A
C447        C452   1.385       .  A
C447        H454   1.085       .  S
C448        C449   1.417       .  A
C449        C450   1.415       .  A
C449        N456   1.436       .  S
C450        C451   1.417       .  A
C450        H455   1.081       .  S
C451        C452   1.443       .  A
C452        N453   1.425       .  S
N453        H457   1.041       .  S
N453        H458   1.042       .  S
N456        H459   1.043       .  S
N456        H460   1.045       .  S
C461        C462   1.423       .  A
C461        C466   1.410       .  A
C461        H468   1.082       .  S
C462        C463   1.419       .  A
C463        C464   1.389       .  A
C463        N470   1.433       .  S
C464        C465   1.413       .  A
C464        H469   1.078       .  S
C465        C466   1.416       .  A
C466        N467   1.438       .  S
N467        H471   1.045       .  S
N467        H472   1.041       .  S
N470        H473   1.046       .  S
N470        H474   1.046       .  S
C475        C476   1.430       .  A
C475        C480   1.404       .  A
C475        H482   1.081       .  S
C476        C477   1.450       .  A
C477        C478   1.416       .  A
C477        N484   1.427       .  S
C478        C479   1.401       .  A
C478        H483   1.084       .  S
C479        C480   1.408       .  A
C480        N481   1.440       .  S
N481        H485   1.046       .  S
N481        H486   1.045       .  S
N484        H487   1.041       .  S
N484        H488   1.042       .  S
C489        C490   1.418       .  A
C489        C494   1.419       .  A
C489        H496   1.075       .  S
C490        C491   1.439       .  A
C491        C492   1.416       .  A
C491        N498   1.436       .  S
C492        C493   1.401       .  A
C492        H497   1.083       .  S
C493        C494   1.419       .  A
C494        N495   1.438       .  S
N495        H499   1.046       .  S
N495        H500   1.046       .  S
N498        H501   1.045       .  S
N498        H502   1.046       .  S
C503        C504   1.413       .  A
C503        C508   1.399       .  A
C503        H510   1.082       .  S
C504        C505   1.423       .  A
C505        C506   1.392       .  A
C505        N512   1.404       .  S
C506        C507   1.398       .  A
C506        H511   1.079       .  S
C507        C508   1.425       .  A
C508        N509   1.431       .  S
N509        H513   1.046       .  S
N509        H514   1.046       .  S
N512        H515   1.038       .  S
N512        H516   1.043       .  S
C517        C518   1.419       .  A
C517        C522   1.415       .  A
C517        H524   1.077       .  S
C518        C519   1.434       .  A
C519        C520   1.402       .  A
C519        N526   1.430       .  S
C520        C521   1.395       .  A
C520        H525   1.084       .  S
C521        C522   1.415       .  A
C522        N523   1.438       .  S
N523        H527   1.046       .  S
N523        H528   1.046       .  S
N526        H529   1.046       .  S
N526        H530   1.046       .  S
C531        C532   1.418       .  A
C531        C536   1.416       .  A
C531        H538   1.081       .  S
C532        C533   1.429       .  A
C533        C534   1.394       .  A
C533        N540   1.429       .  S
C534        C535   1.397       .  A
C534        H539   1.084       .  S
C535        C536   1.419       .  A
C536        N537   1.436       .  S
N537        H541   1.045       .  S
N537        H542   1.043       .  S
N540        H543   1.046       .  S
N540        H544   1.046       .  S
C545        C546   1.402       .  A
C545        C550   1.403       .  A
C545        H552   1.083       .  S
C546        C547   1.411       .  A
C547        C548   1.415       .  A
C547        N554   1.437       .  S
C548        C549   1.417       .  A
C548        H553   1.077       .  S
C549        C550   1.427       .  A
C550        N551   1.431       .  S
N551        H555   1.044       .  S
N551        H556   1.045       .  S
N554        H557   1.046       .  S
N554        H558   1.046       .  S
C559        C560   1.404       .  A
C559        C564   1.375       .  A
C559        H566   1.081       .  S
C560        C561   1.434       .  A
C561        C562   1.395       .  A
C561        N568   1.432       .  S
C562        C563   1.407       .  A
C562        H567   1.079       .  S
C563        C564   1.431       .  A
C564        N565   1.435       .  S
N565        H569   1.041       .  S
N565        H570   1.041       .  S
N568        H571   1.046       .  S
N568        H572   1.046       .  S
C573        C574   1.396       .  A
C573        C578   1.396       .  A
C573        H580   1.084       .  S
C574        C575   1.424       .  A
C575        C576   1.414       .  A
C575        N582   1.438       .  S
C576        C577   1.413       .  A
C576        H581   1.080       .  S
C577        C578   1.436       .  A
C578        N579   1.436       .  S
N579        H583   1.046       .  S
N579        H584   1.046       .  S
N582        H585   1.043       .  S
N582        H586   1.046       .  S
C587        C588   1.423       .  A
C587        C592   1.385       .  A
C587        H594   1.077       .  S
C588        C589   1.424       .  A
C589        C590   1.421       .  A
C589        N596   1.437       .  S
C590        C591   1.405       .  A
C590        H595   1.083       .  S
C591        C592   1.394       .  A
C592        N593   1.440       .  S
N593        H597   1.045       .  S
N593        H598   1.043       .  S
N596        H599   1.044       .  S
N596        H600   1.045       .  S
C601        C602   1.385       .  A
C601        C606   1.387       .  A
C601        H608   1.085       .  S
C602        C603   1.416       .  A
C603        C604   1.418       .  A
C603        N610   1.436       .  S
C604        C605   1.414       .  A
C604        H609   1.081       .  S
C605        C606   1.449       .  A
C606        N607   1.437       .  S
N607        H611   1.031       .  S
N607        H612   1.039       .  S
N610        H613   1.044       .  S
N610        H614   1.046       .  S
C615        C616   1.423       .  A
C615        C620   1.384       .  A
C615        H622   1.076       .  S
C616        C617   1.423       .  A
C617        C618   1.423       .  A
C617        N624   1.435       .  S
C618        C619   1.409       .  A
C618        H623   1.083       .  S
C619        C620   1.405       .  A
C620        N621   1.442       .  S
N621        H625   1.046       .  S
N621        H626   1.039       .  S
N624        H627   1.044       .  S
N624        H628   1.045       .  S
C629        C630   1.417       .  A
C629        C634   1.416       .  A
C629        H636   1.076       .  S
C630        C631   1.431       .  A
C631        C632   1.405       .  A
C631        N638   1.431       .  S
C632        C633   1.399       .  A
C632        H637   1.084       .  S
C633        C634   1.418       .  A
C634        N635   1.438       .  S
N635        H639   1.046       .  S
N635        H640   1.045       .  S
N638        H641   1.045       .  S
N638        H642   1.046       .  S
C643        C644   1.420       .  A
C643        C648   1.396       .  A
C643        H650   1.077       .  S
C644        C645   1.428       .  A
C645        C646   1.412       .  A
C645        N652   1.437       .  S
C646        C647   1.408       .  A
C646        H651   1.084       .  S
C647        C648   1.411       .  A
C648        N649   1.433       .  S
N649        H653   1.045       .  S
N649        H654   1.045       .  S
N652        H655   1.040       .  S
N652        H656   1.043       .  S
C657        C658   1.414       .  A
C657        C662   1.388       .  A
C657        H664   1.082       .  S
C658        C659   1.416       .  A
C659        C660   1.392       .  A
C659        N666   1.432       .  S
C660        C661   1.409       .  A
C660        H665   1.061       .  S
C661        C662   1.419       .  A
C662        N663   1.432       .  S
N663        H667   1.046       .  S
N663        H668   1.046       .  S
N666        H669   1.046       .  S
N666        H670   1.045       .  S
C671        C672   1.411       .  A
C671        C676   1.414       .  A
C671        H678   1.083       .  S
C672        C673   1.425       .  A
C673        C674   1.400       .  A
C673        N680   1.430       .  S
C674        C675   1.398       .  A
C674        H679   1.084       .  S
C675        C676   1.422       .  A
C676        N677   1.438       .  S
N677        H681   1.046       .  S
N677        H682   1.043       .  S
N680        H683   1.045       .  S
N680        H684   1.043       .  S
C685        C686   1.404       .  A
C685        C690   1.388       .  A
C685        H692   1.058       .  S
C686        C687   1.435       .  A
C687        C688   1.391       .  A
C687        N694   1.432       .  S
C688        C689   1.404       .  A
C688        H693   1.078       .  S
C689        C690   1.406       .  A
C690        N691   1.429       .  S
N691        H695   1.046       .  S
N691        H696   1.045       .  S
N694        H697   1.047       .  S
N694        H698   1.046       .  S
C699        C700   1.422       .  A
C699        C704   1.398       .  A
C699        H706   1.068       .  S
C700        C701   1.427       .  A
C701        C702   1.421       .  A
C701        N708   1.437       .  S
C702        C703   1.408       .  A
C702        H707   1.083       .  S
C703        C704   1.404       .  A
C704        N705   1.441       .  S
N705        H709   1.046       .  S
N705        H710   1.046       .  S
N708        H711   1.043       .  S
N708        H712   1.045       .  S
C713        C714   1.405       .  A
C713        C718   1.414       .  A
C713        H720   1.084       .  S
C714        C715   1.411       .  A
C715        C716   1.408       .  A
C715        N722   1.438       .  S
C716        C717   1.422       .  A
C716        H721   1.081       .  S
C717        C718   1.433       .  A
C718        N719   1.430       .  S
N719        H723   1.046       .  S
N719        H724   1.045       .  S
N722        H725   1.046       .  S
N722        H726   1.046       .  S
C727        C728   1.422       .  A
C727        C732   1.390       .  A
C727        H734   1.073       .  S
C728        C729   1.423       .  A
C729        C730   1.422       .  A
C729        N736   1.435       .  S
C730        C731   1.406       .  A
C730        H735   1.083       .  S
C731        C732   1.391       .  A
C732        N733   1.440       .  S
N733        H737   1.039       .  S
N733        H738   1.045       .  S
N736        H739   1.044       .  S
N736        H740   1.046       .  S
C741        C742   1.405       .  A
C741        C746   1.390       .  A
C741        H748   1.081       .  S
C742        C743   1.418       .  A
C743        C744   1.395       .  A
C743        N750   1.429       .  S
C744        C745   1.411       .  A
C744        H749   1.084       .  S
C745        C746   1.440       .  A
C746        N747   1.437       .  S
N747        H751   1.045       .  S
N747        H752   1.031       .  S
N750        H753   1.046       .  S
N750        H754   1.046       .  S
C755        C756   1.423       .  A
C755        C760   1.416       .  A
C755        H762   1.081       .  S
C756        C757   1.448       .  A
C757        C758   1.394       .  A
C757        N764   1.441       .  S
C758        C759   1.393       .  A
C758        H763   1.085       .  S
C759        C760   1.418       .  A
C760        N761   1.438       .  S
N761        H765   1.046       .  S
N761        H766   1.042       .  S
N764        H767   1.030       .  S
N764        H768   1.046       .  S
C769        C770   1.416       .  A
C769        C774   1.411       .  A
C769        H776   1.084       .  S
C770        C771   1.442       .  A
C771        C772   1.390       .  A
C771        N778   1.435       .  S
C772        C773   1.385       .  A
C772        H777   1.086       .  S
C773        C774   1.412       .  A
C774        N775   1.437       .  S
N775        H779   1.046       .  S
N775        H780   1.044       .  S
N778        H781   1.046       .  S
N778        H782   1.046       .  S
C783        C784   1.411       .  A
C783        C788   1.391       .  A
C783        H790   1.081       .  S
C784        C785   1.424       .  A
C785        C786   1.393       .  A
C785        N792   1.439       .  S
C786        C787   1.402       .  A
C786        H791   1.071       .  S
C787        C788   1.431       .  A
C788        N789   1.438       .  S
N789        H793   1.045       .  S
N789        H794   1.040       .  S
N792        H795   1.042       .  S
N792        H796   1.045       .  S
C797        C798   1.416       .  A
C797        C802   1.399       .  A
C797        H804   1.077       .  S
C798        C799   1.424       .  A
C799        C800   1.417       .  A
C799        N806   1.436       .  S
C800        C801   1.405       .  A
C800        H805   1.083       .  S
C801        C802   1.408       .  A
C802        N803   1.440       .  S
N803        H807   1.046       .  S
N803        H808   1.046       .  S
N806        H809   1.045       .  S
N806        H810   1.045       .  S
C811        C812   1.418       .  A
C811        C816   1.409       .  A
C811        H818   1.069       .  S
C812        C813   1.440       .  A
C813        C814   1.412       .  A
C813        N820   1.440       .  S
C814        C815   1.400       .  A
C814        H819   1.083       .  S
C815        C816   1.409       .  A
C816        N817   1.438       .  S
N817        H821   1.046       .  S
N817        H822   1.046       .  S
N820        H823   1.045       .  S
N820        H824   1.045       .  S
C825        C826   1.422       .  A
C825        C830   1.397       .  A
C825        H832   1.056       .  S
C826        C827   1.437       .  A
C827        C828   1.427       .  A
C827        N834   1.435       .  S
C828        C829   1.404       .  A
C828        H833   1.083       .  S
C829        C830   1.403       .  A
C830        N831   1.443       .  S
N831        H835   1.046       .  S
N831        H836   1.038       .  S
N834        H837   1.044       .  S
N834        H838   1.045       .  S
C839        C840   1.409       .  A
C839        C844   1.395       .  A
C839        H846   1.081       .  S
C840        C841   1.424       .  A
C841        C842   1.397       .  A
C841        N848   1.416       .  S
C842        C843   1.410       .  A
C842        H847   1.068       .  S
C843        C844   1.437       .  A
C844        N845   1.427       .  S
N845        H849   1.046       .  S
N845        H850   1.046       .  S
N848        H851   1.039       .  S
N848        H852   1.041       .  S
C853        C854   1.407       .  A
C853        C858   1.409       .  A
C853        H860   1.084       .  S
C854        C855   1.414       .  A
C855        C856   1.395       .  A
C855        N862   1.433       .  S
C856        C857   1.419       .  A
C856        H861   1.084       .  S
C857        C858   1.418       .  A
C858        N859   1.432       .  S
N859        H863   1.045       .  S
N859        H864   1.045       .  S
N862        H865   1.046       .  S
N862        H866   1.045       .  S
C867        C868   1.416       .  A
C867        C872   1.412       .  A
C867        H874   1.081       .  S
C868        C869   1.427       .  A
C869        C870   1.392       .  A
C869        N876   1.425       .  S
C870        C871   1.392       .  A
C870        H875   1.084       .  S
C871        C872   1.419       .  A
C872        N873   1.439       .  S
N873        H877   1.046       .  S
N873        H878   1.042       .  S
N876        H879   1.047       .  S
N876        H880   1.045       .  S
C881        C882   1.420       .  A
C881        C886   1.407       .  A
C881        H888   1.070       .  S
C882        C883   1.433       .  A
C883        C884   1.412       .  A
C883        N890   1.433       .  S
C884        C885   1.402       .  A
C884        H889   1.084       .  S
C885        C886   1.408       .  A
C886        N887   1.439       .  S
N887        H891   1.046       .  S
N887        H892   1.046       .  S
N890        H893   1.045       .  S
N890        H894   1.046       .  S
C895        C896   1.408       .  A
C895        C900   1.402       .  A
C895        H902   1.072       .  S
C896        C897   1.438       .  A
C897        C898   1.388       .  A
C897        N904   1.436       .  S
C898        C899   1.406       .  A
C898        H903   1.079       .  S
C899        C900   1.424       .  A
C900        N901   1.427       .  S
N901        H905   1.046       .  S
N901        H906   1.046       .  S
N904        H907   1.046       .  S
N904        H908   1.046       .  S
C909        C910   1.417       .  A
C909        C914   1.404       .  A
C909        H916   1.077       .  S
C910        C911   1.427       .  A
C911        C912   1.414       .  A
C911        N918   1.439       .  S
C912        C913   1.408       .  A
C912        H917   1.084       .  S
C913        C914   1.415       .  A
C914        N915   1.432       .  S
N915        H919   1.045       .  S
N915        H920   1.045       .  S
N918        H921   1.043       .  S
N918        H922   1.045       .  S
C923        C924   1.428       .  A
C923        C928   1.396       .  A
C923        H930   1.084       .  S
C924        C925   1.426       .  A
C925        C926   1.414       .  A
C925        N932   1.430       .  S
C926        C927   1.407       .  A
C926        H931   1.084       .  S
C927        C928   1.410       .  A
C928        N929   1.433       .  S
N929        H933   1.045       .  S
N929        H934   1.046       .  S
N932        H935   1.046       .  S
N932        H936   1.045       .  S
C937        C938   1.407       .  A
C937        C942   1.400       .  A
C937        H944   1.083       .  S
C938        C939   1.428       .  A
C939        C940   1.387       .  A
C939        N946   1.435       .  S
C940        C941   1.417       .  A
C940        H945   1.077       .  S
C941        C942   1.424       .  A
C942        N943   1.420       .  S
N943        H947   1.047       .  S
N943        H948   1.045       .  S
N946        H949   1.046       .  S
N946        H950   1.046       .  S
C951        C952   1.419       .  A
C951        C956   1.395       .  A
C951        H958   1.079       .  S
C952        C953   1.424       .  A
C953        C954   1.419       .  A
C953        N960   1.440       .  S
C954        C955   1.407       .  A
C954        H959   1.083       .  S
C955        C956   1.404       .  A
C956        N957   1.440       .  S
N957        H961   1.046       .  S
N957        H962   1.045       .  S
N960        H963   1.040       .  S
N960        H964   1.046       .  S
C965        C966   1.402       .  A
C965        C970   1.414       .  A
C965        H972   1.084       .  S
C966        C967   1.401       .  A
C967        C968   1.385       .  A
C967        N974   1.437       .  S
C968        C969   1.425       .  A
C968        H973   1.080       .  S
C969        C970   1.435       .  A
C970        N971   1.435       .  S
N971        H975   1.046       .  S
N971        H976   1.035       .  S
N974        H977   1.039       .  S
N974        H978   1.046       .  S
C979        C980   1.410       .  A
C979        C984   1.398       .  A
C979        H986   1.078       .  S
C980        C981   1.417       .  A
C981        C982   1.391       .  A
C981        N988   1.430       .  S
C982        C983   1.413       .  A
C982        H987   1.083       .  S
C983        C984   1.423       .  A
C984        N985   1.431       .  S
N985        H989   1.046       .  S
N985        H990   1.046       .  S
N988        H991   1.046       .  S
N988        H992   1.046       .  S
C993        C994   1.400       .  A
C993        C998   1.410       .  A
C993       H1000   1.084       .  S
C994        C995   1.413       .  A
C995        C996   1.405       .  A
C995       N1002   1.439       .  S
C996        C997   1.418       .  A
C996       H1001   1.074       .  S
C997        C998   1.436       .  A
C998        N999   1.429       .  S
N999       H1003   1.046       .  S
N999       H1004   1.046       .  S
N1002      H1005   1.046       .  S
N1002      H1006   1.046       .  S
C1007      C1008   1.401       .  A
C1007      C1012   1.399       .  A
C1007      H1014   1.084       .  S
C1008      C1009   1.411       .  A
C1009      C1010   1.416       .  A
C1009      N1016   1.437       .  S
C1010      C1011   1.420       .  A
C1010      H1015   1.076       .  S
C1011      C1012   1.428       .  A
C1012      N1013   1.433       .  S
N1013      H1017   1.046       .  S
N1013      H1018   1.046       .  S
N1016      H1019   1.046       .  S
N1016      H1020   1.046       .  S
C1021      C1022   1.404       .  A
C1021      C1026   1.381       .  A
C1021      H1028   1.077       .  S
C1022      C1023   1.416       .  A
C1023      C1024   1.386       .  A
C1023      N1030   1.433       .  S
C1024      C1025   1.415       .  A
C1024      H1029   1.079       .  S
C1025      C1026   1.426       .  A
C1026      N1027   1.434       .  S
N1027      H1031   1.043       .  S
N1027      H1032   1.035       .  S
N1030      H1033   1.046       .  S
N1030      H1034   1.046       .  S
C1035      C1036   1.410       .  A
C1035      C1040   1.385       .  A
C1035      H1042   1.066       .  S
C1036      C1037   1.426       .  A
C1037      C1038   1.417       .  A
C1037      N1044   1.436       .  S
C1038      C1039   1.410       .  A
C1038      H1043   1.083       .  S
C1039      C1040   1.413       .  A
C1040      N1041   1.435       .  S
N1041      H1045   1.045       .  S
N1041      H1046   1.046       .  S
N1044      H1047   1.043       .  S
N1044      H1048   1.043       .  S
C1049      C1050   1.408       .  A
C1049      C1054   1.389       .  A
C1049      H1056   1.079       .  S
C1050      C1051   1.422       .  A
C1051      C1052   1.395       .  A
C1051      N1058   1.432       .  S
C1052      C1053   1.409       .  A
C1052      H1057   1.084       .  S
C1053      C1054   1.426       .  A
C1054      N1055   1.435       .  S
N1055      H1059   1.046       .  S
N1055      H1060   1.046       .  S
N1058      H1061   1.046       .  S
N1058      H1062   1.046       .  S
C1063      C1064   1.373       .  A
C1063      C1068   1.383       .  A
C1063      H1070   1.087       .  S
C1064      C1065   1.418       .  A
C1065      C1066   1.422       .  A
C1065      N1072   1.436       .  S
C1066      C1067   1.419       .  A
C1066      H1071   1.083       .  S
C1067      C1068   1.440       .  A
C1068      N1069   1.424       .  S
N1069      H1073   1.040       .  S
N1069      H1074   1.047       .  S
N1072      H1075   1.044       .  S
N1072      H1076   1.045       .  S
C1077      C1078   1.404       .  A
C1077      C1082   1.417       .  A
C1077      H1084   1.083       .  S
C1078      C1079   1.410       .  A
C1079      C1080   1.402       .  A
C1079      N1086   1.439       .  S
C1080      C1081   1.413       .  A
C1080      H1085   1.071       .  S
C1081      C1082   1.431       .  A
C1082      N1083   1.437       .  S
N1083      H1087   1.046       .  S
N1083      H1088   1.045       .  S
N1086      H1089   1.046       .  S
N1086      H1090   1.046       .  S
C1091      C1092   1.415       .  A
C1091      C1096   1.394       .  A
C1091      H1098   1.081       .  S
C1092      C1093   1.423       .  A
C1093      C1094   1.411       .  A
C1093      N1100   1.432       .  S
C1094      C1095   1.404       .  A
C1094      H1099   1.084       .  S
C1095      C1096   1.414       .  A
C1096      N1097   1.433       .  S
N1097      H1101   1.045       .  S
N1097      H1102   1.046       .  S
N1100      H1103   1.046       .  S
N1100      H1104   1.045       .  S
C1105      C1106   1.401       .  A
C1105      C1110   1.391       .  A
C1105      H1112   1.069       .  S
C1106      C1107   1.416       .  A
C1107      C1108   1.398       .  A
C1107      N1114   1.434       .  S
C1108      C1109   1.414       .  A
C1108      H1113   1.069       .  S
C1109      C1110   1.431       .  A
C1110      N1111   1.434       .  S
N1111      H1115   1.046       .  S
N1111      H1116   1.046       .  S
N1114      H1117   1.045       .  S
N1114      H1118   1.046       .  S
C1119      C1120   1.412       .  A
C1119      C1124   1.401       .  A
C1119      H1126   1.077       .  S
C1120      C1121   1.430       .  A
C1121      C1122   1.408       .  A
C1121      N1128   1.436       .  S
C1122      C1123   1.405       .  A
C1122      H1127   1.084       .  S
C1123      C1124   1.411       .  A
C1124      N1125   1.438       .  S
N1125      H1129   1.046       .  S
N1125      H1130   1.045       .  S
N1128      H1131   1.043       .  S
N1128      H1132   1.044       .  S
C1133      C1134   1.401       .  A
C1133      C1138   1.402       .  A
C1133      H1140   1.084       .  S
C1134      C1135   1.417       .  A
C1135      C1136   1.414       .  A
C1135      N1142   1.438       .  S
C1136      C1137   1.421       .  A
C1136      H1141   1.081       .  S
C1137      C1138   1.423       .  A
C1138      N1139   1.427       .  S
N1139      H1143   1.044       .  S
N1139      H1144   1.046       .  S
N1142      H1145   1.042       .  S
N1142      H1146   1.046       .  S
C1147      C1148   1.416       .  A
C1147      C1152   1.408       .  A
C1147      H1154   1.081       .  S
C1148      C1149   1.447       .  A
C1149      C1150   1.402       .  A
C1149      N1156   1.442       .  S
C1150      C1151   1.401       .  A
C1150      H1155   1.084       .  S
C1151      C1152   1.417       .  A
C1152      N1153   1.432       .  S
N1153      H1157   1.044       .  S
N1153      H1158   1.046       .  S
N1156      H1159   1.038       .  S
N1156      H1160   1.045       .  S
C1161      C1162   1.417       .  A
C1161      C1166   1.398       .  A
C1161      H1168   1.061       .  S
C1162      C1163   1.443       .  A
C1163      C1164   1.389       .  A
C1163      N1170   1.430       .  S
C1164      C1165   1.390       .  A
C1164      H1169   1.078       .  S
C1165      C1166   1.411       .  A
C1166      N1167   1.435       .  S
N1167      H1171   1.046       .  S
N1167      H1172   1.045       .  S
N1170      H1173   1.045       .  S
N1170      H1174   1.039       .  S
C1175      C1176   1.381       .  A
C1175      C1180   1.387       .  A
C1175      H1182   1.086       .  S
C1176      C1177   1.419       .  A
C1177      C1178   1.418       .  A
C1177      N1184   1.437       .  S
C1178      C1179   1.413       .  A
C1178      H1183   1.081       .  S
C1179      C1180   1.449       .  A
C1180      N1181   1.435       .  S
N1181      H1185   1.045       .  S
N1181      H1186   1.041       .  S
N1184      H1187   1.044       .  S
N1184      H1188   1.045       .  S
C1189      C1190   1.419       .  A
C1189      C1194   1.401       .  A
C1189      H1196   1.079       .  S
C1190      C1191   1.429       .  A
C1191      C1192   1.409       .  A
C1191      N1198   1.436       .  S
C1192      C1193   1.403       .  A
C1192      H1197   1.083       .  S
C1193      C1194   1.412       .  A
C1194      N1195   1.433       .  S
N1195      H1199   1.044       .  S
N1195      H1200   1.046       .  S
N1198      H1201   1.045       .  S
N1198      H1202   1.045       .  S
C1203      C1204   1.419       .  A
C1203      C1208   1.417       .  A
C1203      H1210   1.080       .  S
C1204      C1205   1.429       .  A
C1205      C1206   1.401       .  A
C1205      N1212   1.435       .  S
C1206      C1207   1.404       .  A
C1206      H1211   1.084       .  S
C1207      C1208   1.414       .  A
C1208      N1209   1.437       .  S
N1209      H1213   1.046       .  S
N1209      H1214   1.045       .  S
N1212      H1215   1.046       .  S
N1212      H1216   1.046       .  S
C1217      C1218   1.404       .  A
C1217      C1222   1.410       .  A
C1217      H1224   1.084       .  S
C1218      C1219   1.411       .  A
C1219      C1220   1.406       .  A
C1219      N1226   1.438       .  S
C1220      C1221   1.422       .  A
C1220      H1225   1.082       .  S
C1221      C1222   1.430       .  A
C1222      N1223   1.428       .  S
N1223      H1227   1.046       .  S
N1223      H1228   1.046       .  S
N1226      H1229   1.045       .  S
N1226      H1230   1.046       .  S
C1231      C1232   1.404       .  A
C1231      C1236   1.411       .  A
C1231      H1238   1.083       .  S
C1232      C1233   1.410       .  A
C1233      C1234   1.403       .  A
C1233      N1240   1.439       .  S
C1234      C1235   1.419       .  A
C1234      H1239   1.077       .  S
C1235      C1236   1.425       .  A
C1236      N1237   1.437       .  S
N1237      H1241   1.046       .  S
N1237      H1242   1.043       .  S
N1240      H1243   1.046       .  S
N1240      H1244   1.046       .  S
C1245      C1246   1.397       .  A
C1245      C1250   1.400       .  A
C1245      H1252   1.084       .  S
C1246      C1247   1.420       .  A
C1247      C1248   1.410       .  A
C1247      N1254   1.432       .  S
C1248      C1249   1.417       .  A
C1248      H1253   1.076       .  S
C1249      C1250   1.436       .  A
C1250      N1251   1.433       .  S
N1251      H1255   1.045       .  S
N1251      H1256   1.046       .  S
N1254      H1257   1.045       .  S
N1254      H1258   1.046       .  S
C1259      C1260   1.420       .  A
C1259      C1264   1.410       .  A
C1259      H1266   1.080       .  S
C1260      C1261   1.447       .  A
C1261      C1262   1.407       .  A
C1261      N1268   1.440       .  S
C1262      C1263   1.401       .  A
C1262      H1267   1.084       .  S
C1263      C1264   1.408       .  A
C1264      N1265   1.438       .  S
N1265      H1269   1.046       .  S
N1265      H1270   1.046       .  S
N1268      H1271   1.045       .  S
N1268      H1272   1.039       .  S
C1273      C1274   1.415       .  A
C1273      C1278   1.397       .  A
C1273      H1280   1.074       .  S
C1274      C1275   1.435       .  A
C1275      C1276   1.416       .  A
C1275      N1282   1.432       .  S
C1276      C1277   1.405       .  A
C1276      H1281   1.084       .  S
C1277      C1278   1.417       .  A
C1278      N1279   1.433       .  S
N1279      H1283   1.045       .  S
N1279      H1284   1.045       .  S
N1282      H1285   1.046       .  S
N1282      H1286   1.046       .  S
C1287      C1288   1.422       .  A
C1287      C1292   1.420       .  A
C1287      H1294   1.081       .  S
C1288      C1289   1.427       .  A
C1289      C1290   1.396       .  A
C1289      N1296   1.423       .  S
C1290      C1291   1.394       .  A
C1290      H1295   1.085       .  S
C1291      C1292   1.417       .  A
C1292      N1293   1.437       .  S
N1293      H1297   1.046       .  S
N1293      H1298   1.043       .  S
N1296      H1299   1.046       .  S
N1296      H1300   1.046       .  S
C1301      C1302   1.404       .  A
C1301      C1306   1.409       .  A
C1301      H1308   1.078       .  S
C1302      C1303   1.420       .  A
C1303      C1304   1.390       .  A
C1303      N1310   1.436       .  S
C1304      C1305   1.421       .  A
C1304      H1309   1.062       .  S
C1305      C1306   1.437       .  A
C1306      N1307   1.425       .  S
N1307      H1311   1.043       .  S
N1307      H1312   1.046       .  S
N1310      H1313   1.042       .  S
N1310      H1314   1.034       .  S
C1315      C1316   1.424       .  A
C1315      C1320   1.423       .  A
C1315      H1322   1.083       .  S
C1316      C1317   1.436       .  A
C1317      C1318   1.391       .  A
C1317      N1324   1.421       .  S
C1318      C1319   1.379       .  A
C1318      H1323   1.087       .  S
C1319      C1320   1.415       .  A
C1320      N1321   1.436       .  S
N1321      H1325   1.046       .  S
N1321      H1326   1.045       .  S
N1324      H1327   1.044       .  S
N1324      H1328   1.046       .  S
C1329      C1330   1.422       .  A
C1329      C1334   1.401       .  A
C1329      H1336   1.083       .  S
C1330      C1331   1.440       .  A
C1331      C1332   1.404       .  A
C1331      N1338   1.429       .  S
C1332      C1333   1.399       .  A
C1332      H1337   1.084       .  S
C1333      C1334   1.412       .  A
C1334      N1335   1.439       .  S
N1335      H1339   1.046       .  S
N1335      H1340   1.046       .  S
N1338      H1341   1.041       .  S
N1338      H1342   1.041       .  S
C1343      C1344   1.404       .  A
C1343      C1348   1.408       .  A
C1343      H1350   1.083       .  S
C1344      C1345   1.414       .  A
C1345      C1346   1.408       .  A
C1345      N1352   1.440       .  S
C1346      C1347   1.421       .  A
C1346      H1351   1.078       .  S
C1347      C1348   1.436       .  A
C1348      N1349   1.444       .  S
N1349      H1353   1.045       .  S
N1349      H1354   1.042       .  S
N1352      H1355   1.042       .  S
N1352      H1356   1.046       .  S
C1357      C1358   1.405       .  A
C1357      C1362   1.395       .  A
C1357      H1364   1.073       .  S
C1358      C1359   1.420       .  A
C1359      C1360   1.399       .  A
C1359      N1366   1.441       .  S
C1360      C1361   1.414       .  A
C1360      H1365   1.061       .  S
C1361      C1362   1.437       .  A
C1362      N1363   1.434       .  S
N1363      H1367   1.046       .  S
N1363      H1368   1.046       .  S
N1366      H1369   1.044       .  S
N1366      H1370   1.045       .  S
C1371      C1372   1.419       .  A
C1371      C1376   1.390       .  A
C1371      H1378   1.073       .  S
C1372      C1373   1.432       .  A
C1373      C1374   1.415       .  A
C1373      N1380   1.434       .  S
C1374      C1375   1.402       .  A
C1374      H1379   1.084       .  S
C1375      C1376   1.400       .  A
C1376      N1377   1.431       .  S
N1377      H1381   1.045       .  S
N1377      H1382   1.046       .  S
N1380      H1383   1.045       .  S
N1380      H1384   1.045       .  S
C1385      C1386   1.391       .  A
C1385      C1390   1.400       .  A
C1385      H1392   1.084       .  S
C1386      C1387   1.413       .  A
C1387      C1388   1.422       .  A
C1387      N1394   1.436       .  S
C1388      C1389   1.413       .  A
C1388      H1393   1.081       .  S
C1389      C1390   1.431       .  A
C1390      N1391   1.424       .  S
N1391      H1395   1.047       .  S
N1391      H1396   1.046       .  S
N1394      H1397   1.046       .  S
N1394      H1398   1.046       .  S
C1399      C1400   1.417       .  A
C1399      C1404   1.409       .  A
C1399      H1406   1.080       .  S
C1400      C1401   1.449       .  A
C1401      C1402   1.401       .  A
C1401      N1408   1.446       .  S
C1402      C1403   1.396       .  A
C1402      H1407   1.084       .  S
C1403      C1404   1.407       .  A
C1404      N1405   1.437       .  S
N1405      H1409   1.046       .  S
N1405      H1410   1.046       .  S
N1408      H1411   1.046       .  S
N1408      H1412   1.038       .  S
C1413      C1414   1.399       .  A
C1413      C1418   1.393       .  A
C1413      H1420   1.079       .  S
C1414      C1415   1.412       .  A
C1415      C1416   1.388       .  A
C1415      N1422   1.432       .  S
C1416      C1417   1.402       .  A
C1416      H1421   1.049       .  S
C1417      C1418   1.449       .  A
C1418      N1419   1.436       .  S
N1419      H1423   1.046       .  S
N1419      H1424   1.046       .  S
N1422      H1425   1.046       .  S
N1422      H1426   1.046       .  S
C1427      C1428   1.426       .  A
C1427      C1432   1.412       .  A
C1427      H1434   1.080       .  S
C1428      C1429   1.443       .  A
C1429      C1430   1.416       .  A
C1429      N1436   1.447       .  S
C1430      C1431   1.406       .  A
C1430      H1435   1.083       .  S
C1431      C1432   1.413       .  A
C1432      N1433   1.432       .  S
N1433      H1437   1.045       .  S
N1433      H1438   1.046       .  S
N1436      H1439   1.037       .  S
N1436      H1440   1.046       .  S
C1441      C1442   1.396       .  A
C1441      C1446   1.403       .  A
C1441      H1448   1.084       .  S
C1442      C1443   1.420       .  A
C1443      C1444   1.415       .  A
C1443      N1450   1.436       .  S
C1444      C1445   1.413       .  A
C1444      H1449   1.080       .  S
C1445      C1446   1.445       .  A
C1446      N1447   1.443       .  S
N1447      H1451   1.046       .  S
N1447      H1452   1.031       .  S
N1450      H1453   1.042       .  S
N1450      H1454   1.045       .  S
C1455      C1456   1.406       .  A
C1455      C1460   1.412       .  A
C1455      H1462   1.084       .  S
C1456      C1457   1.404       .  A
C1457      C1458   1.387       .  A
C1457      N1464   1.440       .  S
C1458      C1459   1.423       .  A
C1458      H1463   1.080       .  S
C1459      C1460   1.419       .  A
C1460      N1461   1.432       .  S
N1461      H1465   1.045       .  S
N1461      H1466   1.045       .  S
N1464      H1467   1.041       .  S
N1464      H1468   1.045       .  S
C1469      C1470   1.421       .  A
C1469      C1474   1.392       .  A
C1469      H1476   1.059       .  S
C1470      C1471   1.420       .  A
C1471      C1472   1.381       .  A
C1471      N1478   1.429       .  S
C1472      C1473   1.403       .  A
C1472      H1477   1.074       .  S
C1473      C1474   1.411       .  A
C1474      N1475   1.434       .  S
N1475      H1479   1.045       .  S
N1475      H1480   1.046       .  S
N1478      H1481   1.043       .  S
N1478      H1482   1.041       .  S
C1483      C1484   1.396       .  A
C1483      C1488   1.402       .  A
C1483      H1490   1.084       .  S
C1484      C1485   1.408       .  A
C1485      C1486   1.413       .  A
C1485      N1492   1.438       .  S
C1486      C1487   1.424       .  A
C1486      H1491   1.073       .  S
C1487      C1488   1.447       .  A
C1488      N1489   1.431       .  S
N1489      H1493   1.040       .  S
N1489      H1494   1.042       .  S
N1492      H1495   1.046       .  S
N1492      H1496   1.045       .  S
C1497      C1498   1.427       .  A
C1497      C1502   1.396       .  A
C1497      H1504   1.081       .  S
C1498      C1499   1.437       .  A
C1499      C1500   1.419       .  A
C1499      N1506   1.425       .  S
C1500      C1501   1.402       .  A
C1500      H1505   1.084       .  S
C1501      C1502   1.408       .  A
C1502      N1503   1.441       .  S
N1503      H1507   1.046       .  S
N1503      H1508   1.046       .  S
N1506      H1509   1.046       .  S
N1506      H1510   1.046       .  S
C1511      C1512   1.415       .  A
C1511      C1516   1.414       .  A
C1511      H1518   1.083       .  S
C1512      C1513   1.450       .  A
C1513      C1514   1.385       .  A
C1513      N1520   1.434       .  S
C1514      C1515   1.378       .  A
C1514      H1519   1.086       .  S
C1515      C1516   1.415       .  A
C1516      N1517   1.437       .  S
N1517      H1521   1.046       .  S
N1517      H1522   1.044       .  S
N1520      H1523   1.043       .  S
N1520      H1524   1.045       .  S
C1525      C1526   1.400       .  A
C1525      C1530   1.385       .  A
C1525      H1532   1.070       .  S
C1526      C1527   1.421       .  A
C1527      C1528   1.385       .  A
C1527      N1534   1.432       .  S
C1528      C1529   1.407       .  A
C1528      H1533   1.085       .  S
C1529      C1530   1.437       .  A
C1530      N1531   1.433       .  S
N1531      H1535   1.046       .  S
N1531      H1536   1.046       .  S
N1534      H1537   1.046       .  S
N1534      H1538   1.046       .  S
C1539      C1540   1.420       .  A
C1539      C1544   1.418       .  A
C1539      H1546   1.077       .  S
C1540      C1541   1.431       .  A
C1541      C1542   1.407       .  A
C1541      N1548   1.431       .  S
C1542      C1543   1.403       .  A
C1542      H1547   1.083       .  S
C1543      C1544   1.413       .  A
C1544      N1545   1.437       .  S
N1545      H1549   1.046       .  S
N1545      H1550   1.046       .  S
N1548      H1551   1.045       .  S
N1548      H1552   1.045       .  S
C1553      C1554   1.416       .  A
C1553      C1558   1.413       .  A
C1553      H1560   1.080       .  S
C1554      C1555   1.436       .  A
C1555      C1556   1.414       .  A
C1555      N1562   1.441       .  S
C1556      C1557   1.402       .  A
C1556      H1561   1.083       .  S
C1557      C1558   1.415       .  A
C1558      N1559   1.438       .  S
N1559      H1563   1.046       .  S
N1559      H1564   1.046       .  S
N1562      H1565   1.042       .  S
N1562      H1566   1.045       .  S
C1567      C1568   1.404       .  A
C1567      C1572   1.409       .  A
C1567      H1574   1.084       .  S
C1568      C1569   1.410       .  A
C1569      C1570   1.397       .  A
C1569      N1576   1.433       .  S
C1570      C1571   1.416       .  A
C1570      H1575   1.072       .  S
C1571      C1572   1.435       .  A
C1572      N1573   1.436       .  S
N1573      H1577   1.044       .  S
N1573      H1578   1.043       .  S
N1576      H1579   1.046       .  S
N1576      H1580   1.045       .  S
C1581      C1582   1.419       .  A
C1581      C1586   1.403       .  A
C1581      H1588   1.065       .  S
C1582      C1583   1.434       .  A
C1583      C1584   1.395       .  A
C1583      N1590   1.434       .  S
C1584      C1585   1.393       .  A
C1584      H1589   1.061       .  S
C1585      C1586   1.412       .  A
C1586      N1587   1.433       .  S
N1587      H1591   1.046       .  S
N1587      H1592   1.045       .  S
N1590      H1593   1.046       .  S
N1590      H1594   1.044       .  S
C1595      C1596   1.413       .  A
C1595      C1600   1.396       .  A
C1595      H1602   1.076       .  S
C1596      C1597   1.426       .  A
C1597      C1598   1.415       .  A
C1597      N1604   1.436       .  S
C1598      C1599   1.404       .  A
C1598      H1603   1.083       .  S
C1599      C1600   1.408       .  A
C1600      N1601   1.433       .  S
N1601      H1605   1.046       .  S
N1601      H1606   1.046       .  S
N1604      H1607   1.045       .  S
N1604      H1608   1.046       .  S
C1609      C1610   1.400       .  A
C1609      C1614   1.418       .  A
C1609      H1616   1.084       .  S
C1610      C1611   1.402       .  A
C1611      C1612   1.397       .  A
C1611      N1618   1.440       .  S
C1612      C1613   1.431       .  A
C1612      H1617   1.081       .  S
C1613      C1614   1.440       .  A
C1614      N1615   1.425       .  S
N1615      H1619   1.046       .  S
N1615      H1620   1.046       .  S
N1618      H1621   1.046       .  S
N1618      H1622   1.046       .  S
C1623      C1624   1.417       .  A
C1623      C1628   1.412       .  A
C1623      H1630   1.074       .  S
C1624      C1625   1.435       .  A
C1625      C1626   1.411       .  A
C1625      N1632   1.437       .  S
C1626      C1627   1.400       .  A
C1626      H1631   1.083       .  S
C1627      C1628   1.416       .  A
C1628      N1629   1.438       .  S
N1629      H1633   1.046       .  S
N1629      H1634   1.046       .  S
N1632      H1635   1.045       .  S
N1632      H1636   1.046       .  S
C1637      C1638   1.409       .  A
C1637      C1642   1.402       .  A
C1637      H1644   1.079       .  S
C1638      C1639   1.439       .  A
C1639      C1640   1.393       .  A
C1639      N1646   1.440       .  S
C1640      C1641   1.408       .  A
C1640      H1645   1.084       .  S
C1641      C1642   1.428       .  A
C1642      N1643   1.431       .  S
N1643      H1647   1.045       .  S
N1643      H1648   1.032       .  S
N1646      H1649   1.032       .  S
N1646      H1650   1.046       .  S
C1651      C1652   1.386       .  A
C1651      C1656   1.385       .  A
C1651      H1658   1.086       .  S
C1652      C1653   1.415       .  A
C1653      C1654   1.416       .  A
C1653      N1660   1.437       .  S
C1654      C1655   1.413       .  A
C1654      H1659   1.082       .  S
C1655      C1656   1.446       .  A
C1656      N1657   1.436       .  S
N1657      H1661   1.032       .  S
N1657      H1662   1.038       .  S
N1660      H1663   1.044       .  S
N1660      H1664   1.046       .  S
C1665      C1666   1.419       .  A
C1665      C1670   1.380       .  A
C1665      H1672   1.070       .  S
C1666      C1667   1.420       .  A
C1667      C1668   1.420       .  A
C1667      N1674   1.431       .  S
C1668      C1669   1.407       .  A
C1668      H1673   1.083       .  S
C1669      C1670   1.402       .  A
C1670      N1671   1.436       .  S
N1671      H1675   1.044       .  S
N1671      H1676   1.045       .  S
N1674      H1677   1.044       .  S
N1674      H1678   1.046       .  S
C1679      C1680   1.410       .  A
C1679      C1684   1.385       .  A
C1679      H1686   1.080       .  S
C1680      C1681   1.430       .  A
C1681      C1682   1.393       .  A
C1681      N1688   1.436       .  S
C1682      C1683   1.413       .  A
C1682      H1687   1.078       .  S
C1683      C1684   1.432       .  A
C1684      N1685   1.438       .  S
N1685      H1689   1.045       .  S
N1685      H1690   1.027       .  S
N1688      H1691   1.031       .  S
N1688      H1692   1.045       .  S
C1693      C1694   1.420       .  A
C1693      C1698   1.394       .  A
C1693      H1700   1.072       .  S
C1694      C1695   1.430       .  A
C1695      C1696   1.417       .  A
C1695      N1702   1.435       .  S
C1696      C1697   1.400       .  A
C1696      H1701   1.083       .  S
C1697      C1698   1.395       .  A
C1698      N1699   1.437       .  S
N1699      H1703   1.044       .  S
N1699      H1704   1.045       .  S
N1702      H1705   1.042       .  S
N1702      H1706   1.046       .  S
C1707      C1708   1.426       .  A
C1707      C1712   1.406       .  A
C1707      H1714   1.076       .  S
C1708      C1709   1.433       .  A
C1709      C1710   1.405       .  A
C1709      N1716   1.427       .  S
C1710      C1711   1.398       .  A
C1710      H1715   1.084       .  S
C1711      C1712   1.406       .  A
C1712      N1713   1.439       .  S
N1713      H1717   1.045       .  S
N1713      H1718   1.046       .  S
N1716      H1719   1.046       .  S
N1716      H1720   1.046       .  S
C1721      C1722   1.407       .  A
C1721      C1726   1.417       .  A
C1721      H1728   1.084       .  S
C1722      C1723   1.414       .  A
C1723      C1724   1.393       .  A
C1723      N1730   1.443       .  S
C1724      C1725   1.416       .  A
C1724      H1729   1.073       .  S
C1725      C1726   1.424       .  A
C1726      N1727   1.432       .  S
N1727      H1731   1.046       .  S
N1727      H1732   1.045       .  S
N1730      H1733   1.037       .  S
N1730      H1734   1.046       .  S
C1735      C1736   1.424       .  A
C1735      C1740   1.394       .  A
C1735      H1742   1.078       .  S
C1736      C1737   1.424       .  A
C1737      C1738   1.422       .  A
C1737      N1744   1.435       .  S
C1738      C1739   1.406       .  A
C1738      H1743   1.083       .  S
C1739      C1740   1.396       .  A
C1740      N1741   1.438       .  S
N1741      H1745   1.046       .  S
N1741      H1746   1.043       .  S
N1744      H1747   1.043       .  S
N1744      H1748   1.045       .  S
C1749      C1750   1.406       .  A
C1749      C1754   1.392       .  A
C1749      H1756   1.076       .  S
C1750      C1751   1.413       .  A
C1751      C1752   1.393       .  A
C1751      N1758   1.433       .  S
C1752      C1753   1.421       .  A
C1752      H1757   1.081       .  S
C1753      C1754   1.432       .  A
C1754      N1755   1.437       .  S
N1755      H1759   1.045       .  S
N1755      H1760   1.028       .  S
N1758      H1761   1.046       .  S
N1758      H1762   1.045       .  S
C1763      C1764   1.418       .  A
C1763      C1768   1.407       .  A
C1763      H1770   1.077       .  S
C1764      C1765   1.433       .  A
C1765      C1766   1.413       .  A
C1765      N1772   1.431       .  S
C1766      C1767   1.403       .  A
C1766      H1771   1.084       .  S
C1767      C1768   1.413       .  A
C1768      N1769   1.438       .  S
N1769      H1773   1.046       .  S
N1769      H1774   1.046       .  S
N1772      H1775   1.046       .  S
N1772      H1776   1.046       .  S
C1777      C1778   1.421       .  A
C1777      C1782   1.423       .  A
C1777      H1784   1.083       .  S
C1778      C1779   1.443       .  A
C1779      C1780   1.381       .  A
C1779      N1786   1.436       .  S
C1780      C1781   1.377       .  A
C1780      H1785   1.081       .  S
C1781      C1782   1.417       .  A
C1782      N1783   1.436       .  S
N1783      H1787   1.046       .  S
N1783      H1788   1.045       .  S
N1786      H1789   1.045       .  S
N1786      H1790   1.046       .  S
C1791      C1792   1.421       .  A
C1791      C1796   1.410       .  A
C1791      H1798   1.075       .  S
C1792      C1793   1.449       .  A
C1793      C1794   1.400       .  A
C1793      N1800   1.441       .  S
C1794      C1795   1.395       .  A
C1794      H1799   1.084       .  S
C1795      C1796   1.416       .  A
C1796      N1797   1.432       .  S
N1797      H1801   1.046       .  S
N1797      H1802   1.044       .  S
N1800      H1803   1.046       .  S
N1800      H1804   1.032       .  S
C1805      C1806   1.400       .  A
C1805      C1810   1.389       .  A
C1805      H1812   1.073       .  S
C1806      C1807   1.419       .  A
C1807      C1808   1.395       .  A
C1807      N1814   1.433       .  S
C1808      C1809   1.416       .  A
C1808      H1813   1.076       .  S
C1809      C1810   1.434       .  A
C1810      N1811   1.432       .  S
N1811      H1815   1.042       .  S
N1811      H1816   1.046       .  S
N1814      H1817   1.046       .  S
N1814      H1818   1.046       .  S
C1819      C1820   1.404       .  A
C1819      C1824   1.407       .  A
C1819      H1826   1.083       .  S
C1820      C1821   1.419       .  A
C1821      C1822   1.410       .  A
C1821      N1828   1.432       .  S
C1822      C1823   1.416       .  A
C1822      H1827   1.080       .  S
C1823      C1824   1.426       .  A
C1824      N1825   1.429       .  S
N1825      H1829   1.045       .  S
N1825      H1830   1.046       .  S
N1828      H1831   1.046       .  S
N1828      H1832   1.044       .  S
C1833      C1834   1.411       .  A
C1833      C1838   1.409       .  A
C1833      H1840   1.082       .  S
C1834      C1835   1.441       .  A
C1835      C1836   1.389       .  A
C1835      N1842   1.430       .  S
C1836      C1837   1.389       .  A
C1836      H1841   1.085       .  S
C1837      C1838   1.416       .  A
C1838      N1839   1.438       .  S
N1839      H1843   1.046       .  S
N1839      H1844   1.042       .  S
N1842      H1845   1.041       .  S
N1842      H1846   1.042       .  S
C1847      C1848   1.405       .  A
C1847      C1852   1.403       .  A
C1847      H1854   1.084       .  S
C1848      C1849   1.409       .  A
C1849      C1850   1.387       .  A
C1849      N1856   1.427       .  S
C1850      C1851   1.420       .  A
C1850      H1855   1.075       .  S
C1851      C1852   1.423       .  A
C1852      N1853   1.417       .  S
N1853      H1857   1.040       .  S
N1853      H1858   1.047       .  S
N1856      H1859   1.044       .  S
N1856      H1860   1.046       .  S
C1861      C1862   1.423       .  A
C1861      C1866   1.412       .  A
C1861      H1868   1.077       .  S
C1862      C1863   1.439       .  A
C1863      C1864   1.411       .  A
C1863      N1870   1.434       .  S
C1864      C1865   1.397       .  A
C1864      H1869   1.084       .  S
C1865      C1866   1.409       .  A
C1866      N1867   1.438       .  S
N1867      H1871   1.046       .  S
N1867      H1872   1.046       .  S
N1870      H1873   1.046       .  S
N1870      H1874   1.046       .  S
C1875      C1876   1.405       .  A
C1875      C1880   1.414       .  A
C1875      H1882   1.084       .  S
C1876      C1877   1.416       .  A
C1877      C1878   1.394       .  A
C1877      N1884   1.433       .  S
C1878      C1879   1.421       .  A
C1878      H1883   1.084       .  S
C1879      C1880   1.426       .  A
C1880      N1881   1.431       .  S
N1881      H1885   1.045       .  S
N1881      H1886   1.046       .  S
N1884      H1887   1.046       .  S
N1884      H1888   1.045       .  S
C1889      C1890   1.411       .  A
C1889      C1894   1.413       .  A
C1889      H1896   1.082       .  S
C1890      C1891   1.429       .  A
C1891      C1892   1.401       .  A
C1891      N1898   1.433       .  S
C1892      C1893   1.396       .  A
C1892      H1897   1.084       .  S
C1893      C1894   1.412       .  A
C1894      N1895   1.437       .  S
N1895      H1899   1.046       .  S
N1895      H1900   1.046       .  S
N1898      H1901   1.042       .  S
N1898      H1902   1.046       .  S
C1903      C1904   1.394       .  A
C1903      C1908   1.400       .  A
C1903      H1910   1.084       .  S
C1904      C1905   1.414       .  A
C1905      C1906   1.417       .  A
C1905      N1912   1.437       .  S
C1906      C1907   1.415       .  A
C1906      H1911   1.079       .  S
C1907      C1908   1.436       .  A
C1908      N1909   1.431       .  S
N1909      H1913   1.046       .  S
N1909      H1914   1.046       .  S
N1912      H1915   1.045       .  S
N1912      H1916   1.046       .  S
C1917      C1918   1.414       .  A
C1917      C1922   1.390       .  A
C1917      H1924   1.072       .  S
C1918      C1919   1.432       .  A
C1919      C1920   1.401       .  A
C1919      N1926   1.423       .  S
C1920      C1921   1.398       .  A
C1920      H1925   1.065       .  S
C1921      C1922   1.415       .  A
C1922      N1923   1.428       .  S
N1923      H1927   1.046       .  S
N1923      H1928   1.046       .  S
N1926      H1929   1.045       .  S
N1926      H1930   1.046       .  S
C1931      C1932   1.420       .  A
C1931      C1936   1.415       .  A
C1931      H1938   1.080       .  S
C1932      C1933   1.430       .  A
C1933      C1934   1.411       .  A
C1933      N1940   1.437       .  S
C1934      C1935   1.401       .  A
C1934      H1939   1.083       .  S
C1935      C1936   1.417       .  A
C1936      N1937   1.437       .  S
N1937      H1941   1.046       .  S
N1937      H1942   1.046       .  S
N1940      H1943   1.045       .  S
N1940      H1944   1.046       .  S
C1945      C1946   1.424       .  A
C1945      C1950   1.402       .  A
C1945      H1952   1.081       .  S
C1946      C1947   1.430       .  A
C1947      C1948   1.402       .  A
C1947      N1954   1.424       .  S
C1948      C1949   1.395       .  A
C1948      H1953   1.084       .  S
C1949      C1950   1.412       .  A
C1950      N1951   1.433       .  S
N1951      H1955   1.044       .  S
N1951      H1956   1.046       .  S
N1954      H1957   1.047       .  S
N1954      H1958   1.045       .  S
C1959      C1960   1.417       .  A
C1959      C1964   1.392       .  A
C1959      H1966   1.079       .  S
C1960      C1961   1.414       .  A
C1961      C1962   1.379       .  A
C1961      N1968   1.438       .  S
C1962      C1963   1.414       .  A
C1962      H1967   1.079       .  S
C1963      C1964   1.424       .  A
C1964      N1965   1.433       .  S
N1965      H1969   1.046       .  S
N1965      H1970   1.046       .  S
N1968      H1971   1.046       .  S
N1968      H1972   1.032       .  S
C1973      C1974   1.414       .  A
C1973      C1978   1.397       .  A
C1973      H1980   1.082       .  S
C1974      C1975   1.424       .  A
C1975      C1976   1.411       .  A
C1975      N1982   1.434       .  S
C1976      C1977   1.409       .  A
C1976      H1981   1.083       .  S
C1977      C1978   1.413       .  A
C1978      N1979   1.439       .  S
N1979      H1983   1.046       .  S
N1979      H1984   1.045       .  S
N1982      H1985   1.043       .  S
N1982      H1986   1.043       .  S
C1987      C1988   1.416       .  A
C1987      C1992   1.408       .  A
C1987      H1994   1.080       .  S
C1988      C1989   1.448       .  A
C1989      C1990   1.399       .  A
C1989      N1996   1.445       .  S
C1990      C1991   1.395       .  A
C1990      H1995   1.085       .  S
C1991      C1992   1.409       .  A
C1992      N1993   1.438       .  S
N1993      H1997   1.046       .  S
N1993      H1998   1.045       .  S
N1996      H1999   1.037       .  S
N1996      H2000   1.046       .  S
C2001      C2002   1.418       .  A
C2001      C2006   1.412       .  A
C2001      H2008   1.072       .  S
C2002      C2003   1.443       .  A
C2003      C2004   1.400       .  A
C2003      N2010   1.437       .  S
C2004      C2005   1.394       .  A
C2004      H2009   1.084       .  S
C2005      C2006   1.416       .  A
C2006      N2007   1.432       .  S
N2007      H2011   1.044       .  S
N2007      H2012   1.046       .  S
N2010      H2013   1.046       .  S
N2010      H2014   1.046       .  S
C2015      C2016   1.427       .  A
C2015      C2020   1.381       .  A
C2015      H2022   1.079       .  S
C2016      C2017   1.422       .  A
C2017      C2018   1.427       .  A
C2017      N2024   1.432       .  S
C2018      C2019   1.413       .  A
C2018      H2023   1.083       .  S
C2019      C2020   1.406       .  A
C2020      N2021   1.441       .  S
N2021      H2025   1.046       .  S
N2021      H2026   1.035       .  S
N2024      H2027   1.045       .  S
N2024      H2028   1.046       .  S
C2029      C2030   1.419       .  A
C2029      C2034   1.387       .  A
C2029      H2036   1.084       .  S
C2030      C2031   1.423       .  A
C2031      C2032   1.386       .  A
C2031      N2038   1.424       .  S
C2032      C2033   1.403       .  A
C2032      H2037   1.058       .  S
C2033      C2034   1.415       .  A
C2034      N2035   1.427       .  S
N2035      H2039   1.046       .  S
N2035      H2040   1.046       .  S
N2038      H2041   1.040       .  S
N2038      H2042   1.040       .  S
C2043      C2044   1.418       .  A
C2043      C2048   1.414       .  A
C2043      H2050   1.074       .  S
C2044      C2045   1.431       .  A
C2045      C2046   1.408       .  A
C2045      N2052   1.430       .  S
C2046      C2047   1.403       .  A
C2046      H2051   1.083       .  S
C2047      C2048   1.414       .  A
C2048      N2049   1.438       .  S
N2049      H2053   1.046       .  S
N2049      H2054   1.046       .  S
N2052      H2055   1.046       .  S
N2052      H2056   1.046       .  S
C2057      C2058   1.429       .  A
C2057      C2062   1.381       .  A
C2057      H2064   1.072       .  S
C2058      C2059   1.423       .  A
C2059      C2060   1.428       .  A
C2059      N2066   1.435       .  S
C2060      C2061   1.410       .  A
C2060      H2065   1.083       .  S
C2061      C2062   1.388       .  A
C2062      N2063   1.442       .  S
N2063      H2067   1.044       .  S
N2063      H2068   1.045       .  S
N2066      H2069   1.044       .  S
N2066      H2070   1.045       .  S
C2071      C2072   1.415       .  A
C2071      C2076   1.393       .  A
C2071      H2078   1.081       .  S
C2072      C2073   1.443       .  A
C2073      C2074   1.376       .  A
C2073      N2080   1.440       .  S
C2074      C2075   1.398       .  A
C2074      H2079   1.080       .  S
C2075      C2076   1.412       .  A
C2076      N2077   1.436       .  S
N2077      H2081   1.046       .  S
N2077      H2082   1.041       .  S
N2080      H2083   1.024       .  S
N2080      H2084   1.047       .  S
C2085      C2086   1.426       .  A
C2085      C2090   1.405       .  A
C2085      H2092   1.079       .  S
C2086      C2087   1.433       .  A
C2087      C2088   1.418       .  A
C2087      N2094   1.432       .  S
C2088      C2089   1.410       .  A
C2088      H2093   1.083       .  S
C2089      C2090   1.410       .  A
C2090      N2091   1.439       .  S
N2091      H2095   1.046       .  S
N2091      H2096   1.045       .  S
N2094      H2097   1.043       .  S
N2094      H2098   1.039       .  S
C2099      C2100   1.393       .  A
C2099      C2104   1.397       .  A
C2099      H2106   1.085       .  S
C2100      C2101   1.418       .  A
C2101      C2102   1.413       .  A
C2101      N2108   1.439       .  S
C2102      C2103   1.420       .  A
C2102      H2107   1.081       .  S
C2103      C2104   1.438       .  A
C2104      N2105   1.427       .  S
N2105      H2109   1.038       .  S
N2105      H2110   1.043       .  S
N2108      H2111   1.042       .  S
N2108      H2112   1.046       .  S
C2113      C2114   1.421       .  A
C2113      C2118   1.413       .  A
C2113      H2120   1.084       .  S
C2114      C2115   1.447       .  A
C2115      C2116   1.385       .  A
C2115      N2122   1.428       .  S
C2116      C2117   1.378       .  A
C2116      H2121   1.087       .  S
C2117      C2118   1.411       .  A
C2118      N2119   1.436       .  S
N2119      H2123   1.046       .  S
N2119      H2124   1.044       .  S
N2122      H2125   1.047       .  S
N2122      H2126   1.046       .  S
C2127      C2128   1.403       .  A
C2127      C2132   1.383       .  A
C2127      H2134   1.058       .  S
C2128      C2129   1.434       .  A
C2129      C2130   1.403       .  A
C2129      N2136   1.439       .  S
C2130      C2131   1.416       .  A
C2130      H2135   1.078       .  S
C2131      C2132   1.427       .  A
C2132      N2133   1.437       .  S
N2133      H2137   1.045       .  S
N2133      H2138   1.026       .  S
N2136      H2139   1.044       .  S
N2136      H2140   1.041       .  S
C2141      C2142   1.418       .  A
C2141      C2146   1.406       .  A
C2141      H2148   1.077       .  S
C2142      C2143   1.436       .  A
C2143      C2144   1.402       .  A
C2143      N2150   1.436       .  S
C2144      C2145   1.399       .  A
C2144      H2149   1.084       .  S
C2145      C2146   1.417       .  A
C2146      N2147   1.433       .  S
N2147      H2151   1.044       .  S
N2147      H2152   1.046       .  S
N2150      H2153   1.046       .  S
N2150      H2154   1.046       .  S
C2155      C2156   1.401       .  A
C2155      C2160   1.404       .  A
C2155      H2162   1.084       .  S
C2156      C2157   1.410       .  A
C2157      C2158   1.411       .  A
C2157      N2164   1.438       .  S
C2158      C2159   1.417       .  A
C2158      H2163   1.077       .  S
C2159      C2160   1.440       .  A
C2160      N2161   1.434       .  S
N2161      H2165   1.042       .  S
N2161      H2166   1.042       .  S
N2164      H2167   1.046       .  S
N2164      H2168   1.046       .  S
