geometry optimzed in LAMMPS
_audit_creation_date              2020-11-30 
_audit_creation_method            'lammps2cif' 
_symmetry_space_group_name_H-M    'P1' 
_symmetry_Int_Tables_number       1 
_symmetry_cell_setting            triclinic 
loop_ 
_symmetry_equiv_pos_as_xyz 
  x,y,z 
_cell_length_a                    36.91062358 
_cell_length_b                    36.51323723118264 
_cell_length_c                    26.648824132469965 
_cell_angle_alpha                 88.61995891768551 
_cell_angle_beta                  89.0621343569082 
_cell_angle_gamma                 89.90819518429652 
loop_ 
_atom_site_label 
_atom_site_type_symbol 
_atom_site_fract_x 
_atom_site_fract_y 
_atom_site_fract_z 
_atom_site_charge 
N1          N  0.05471912  0.99860715  0.99848269    -0.34900
N2          N  0.49950576  0.05503280  0.00036413    -0.55400
N3          N  0.44416221  0.99881159  0.99589092    -0.34800
N4          N  0.49935001  0.44226134  0.99901512    -0.55400
C5          C  0.07451378  0.02814001  0.01074863     0.28700
C6          C  0.07425046  0.46846716  0.01108505     0.28700
C7          C  0.42361610  0.02833525  0.00677038     0.28700
C8          C  0.42355093  0.46877377  0.00541822     0.28700
C9          C  0.02894042  0.07648159  0.99267222     0.37400
C10         C  0.47036152  0.07659613  0.99209891     0.37400
C11         C  0.02891336  0.42161354  0.98927501     0.37400
C12         C  0.47031187  0.42174323  0.98771258     0.37400
C13         C  0.10699865  0.01672942  0.03129353    -0.20100
C14         C  0.10670309  0.47903591  0.03194355    -0.20100
C15         C  0.38947904  0.01695758  0.02309351    -0.20100
C16         C  0.38943939  0.47931003  0.02222990    -0.20100
C17         C  0.01849082  0.11192642  0.97990994    -0.21200
C18         C  0.48128982  0.11201086  0.97960500    -0.21200
C19         C  0.01856418  0.38786588  0.97147713    -0.21200
C20         C  0.48136483  0.38783407  0.97097124    -0.21200
C21         C  0.06490584  0.06504816  0.00092828    -0.16500
C22         C  0.06479504  0.43195840  0.00013989    -0.16500
C23         C  0.43398671  0.43236388  0.99581397    -0.16500
C24         C  0.43405681  0.06525816  0.99898208    -0.16500
H25         H  0.12874195  0.03380064  0.04418874     0.16400
H26         H  0.12827915  0.46143426  0.04533718     0.16400
H27         H  0.36678300  0.03403007  0.03385771     0.16400
H28         H  0.36671003  0.46173516  0.03213401     0.16400
H29         H  0.03582214  0.13537598  0.97241388     0.14700
H30         H  0.46424247  0.13552476  0.97167860     0.14700
H31         H  0.03592496  0.36539026  0.96066623     0.14700
H32         H  0.46439189  0.36539148  0.95982846     0.14700
H33         H  0.03151109  0.99910030  0.97694997     0.27900
H34         H  0.46908487  0.99930521  0.97730666     0.27900
N35         N  0.05540660  0.00224849  0.50045006    -0.34900
N36         N  0.49912074  0.05755606  0.49762877    -0.55400
N37         N  0.44502323  0.00032369  0.49323753    -0.34800
N38         N  0.50116235  0.44510225  0.49131868    -0.55400
C39         C  0.07540527  0.03292578  0.49252339     0.28700
C40         C  0.07655620  0.47344962  0.48817726     0.28700
C41         C  0.42529895  0.03025660  0.48041414     0.28700
C42         C  0.42611344  0.47066543  0.47929417     0.28700
C43         C  0.02738553  0.07846607  0.51086204     0.37400
C44         C  0.46891926  0.07743642  0.50650094     0.37400
C45         C  0.03061372  0.42406796  0.49998156     0.37400
C46         C  0.47205087  0.42304238  0.49814758     0.37400
C47         C  0.10977054  0.02351405  0.47538793    -0.20100
C48         C  0.11049770  0.48593206  0.47263914    -0.20100
C49         C  0.39368231  0.01944333  0.45752104    -0.20100
C50         C  0.39404117  0.48176174  0.45728907    -0.20100
C51         C  0.01519883  0.11182203  0.52820623    -0.21200
C52         C  0.47805696  0.11106307  0.52585997    -0.21200
C53         C  0.02019940  0.38838613  0.51189486    -0.21200
C54         C  0.48300797  0.38775498  0.51078933    -0.21200
C55         C  0.06404402  0.06891211  0.50328294    -0.16500
C56         C  0.06677538  0.43614493  0.49390977    -0.16500
C57         C  0.43598947  0.43390009  0.48928535    -0.16500
C58         C  0.43367001  0.06667207  0.49308947    -0.16500
H59         H  0.13212226  0.04178422  0.46631296     0.16400
H60         H  0.13352943  0.46962101  0.46104131     0.16400
H61         H  0.37215418  0.03685171  0.44352780     0.16400
H62         H  0.37296619  0.46448315  0.44297444     0.16400
H63         H  0.03140341  0.13444632  0.54066277     0.14700
H64         H  0.45994960  0.13303972  0.53629724     0.14700
H65         H  0.03758542  0.36516677  0.52002711     0.14700
H66         H  0.46603150  0.36395834  0.51766261     0.14700
H67         H  0.03031544  0.00075827  0.51865880     0.27900
H68         H  0.46758872  0.99989651  0.51612753     0.27900
O69         O  0.17482971  0.20254182  0.02711712    -0.76700
C70         C  0.24767218  0.24664837  0.13751429     0.84300
O71         O  0.20485787  0.32514679  0.96796535    -0.77900
O72         O  0.32446123  0.29391507  0.02618907    -0.79300
O73         O  0.29526673  0.17285324  0.96746916    -0.79100
O74         O  0.20455462  0.17206378  0.96810590    -0.77800
Zn75       Zn  0.20528333  0.24736583  0.03996118     1.55700
O76         O  0.32412588  0.20243127  0.02694241    -0.79200
Cd77       Cd  0.24965243  0.20439960  0.95414495     1.59700
Cd78       Cd  0.25002797  0.29347950  0.95342943     1.59600
O79         O  0.24935890  0.21949046  0.87893651    -0.79100
O80         O  0.24871261  0.24834219  0.99730834    -1.89700
Cd81       Cd  0.29266657  0.24806019  0.03967866     1.59900
O82         O  0.24971589  0.28046011  0.87820014    -0.79100
O83         O  0.27810847  0.24719754  0.11436495    -0.77800
C84         C  0.17766421  0.32072111  0.99757767     0.84800
C85         C  0.17756686  0.17538318  0.99808059     0.84400
O86         O  0.21800109  0.24659524  0.11368517    -0.76700
C87         C  0.32164963  0.17566087  0.99741968     0.85200
O88         O  0.17479557  0.29237231  0.02624262    -0.76800
C89         C  0.24930226  0.25022768  0.85524091     0.85400
C90         C  0.32212218  0.32133184  0.99592633     0.85700
O91         O  0.29574939  0.32483486  0.96584856    -0.79200
O92         O  0.17574750  0.29747868  0.46632003    -0.76700
C93         C  0.24806103  0.25001816  0.35546384     0.84300
O94         O  0.20293783  0.17559692  0.53002481    -0.77900
O95         O  0.32377302  0.20557960  0.46455068    -0.79300
O96         O  0.29613697  0.32690377  0.52336784    -0.79100
O97         O  0.20548206  0.32833959  0.52358935    -0.77800
Zn98       Zn  0.20532498  0.25173378  0.45459106     1.55700
O99         O  0.32494956  0.29735919  0.46254972    -0.79200
Cd100      Cd  0.24998434  0.29580734  0.53772614     1.59700
Cd101      Cd  0.24900695  0.20661235  0.54017403     1.59600
O102        O  0.24884231  0.28157397  0.61323176    -0.79100
O103        O  0.24862488  0.25142651  0.49550810    -1.89700
Cd104      Cd  0.29281488  0.25181305  0.45145234     1.59900
O105        O  0.24936740  0.22058116  0.61510665    -0.79100
O106        O  0.27849794  0.25137670  0.37716438    -0.77800
C107        C  0.17582249  0.18016665  0.50153113     0.84800
C108        C  0.17873080  0.32504517  0.49443889     0.84400
O109        O  0.21838686  0.24991834  0.38062222    -0.76700
C110        C  0.32269479  0.32400075  0.49251223     0.85200
O111        O  0.17366223  0.20786381  0.47166785    -0.76800
C112        C  0.24887393  0.25106887  0.63749344     0.85400
C113        C  0.32070340  0.17769693  0.49397107     0.85700
O114        O  0.29395655  0.17427034  0.52467206    -0.79200
C115        C  0.26098070  0.28157570  0.77148511     0.25400
C116        C  0.24867631  0.25072646  0.79953723    -0.22800
C117        C  0.23577204  0.22026594  0.77373299     0.20300
C118        C  0.23561617  0.22046674  0.72125899     0.25300
C119        C  0.24841257  0.25110187  0.69320345    -0.22700
C120        C  0.26082641  0.28177090  0.71900131     0.18800
F121        F  0.27374943  0.31177827  0.69352496    -0.12700
F122        F  0.27410572  0.31136286  0.79469668    -0.15000
F123        F  0.22210876  0.19086280  0.69802674    -0.15000
F124        F  0.22250532  0.19040540  0.79920402    -0.12700
C125        C  0.21475456  0.25206437  0.22083650     0.25400
C126        C  0.24715831  0.24635844  0.19335456    -0.22800
C127        C  0.27952021  0.24093804  0.21993081     0.20300
C128        C  0.27966569  0.24195822  0.27221379     0.25300
C129        C  0.24743920  0.24834773  0.29975428    -0.22700
C130        C  0.21488934  0.25301169  0.27334008     0.20200
F131        F  0.18307066  0.25908545  0.29806906    -0.12700
F132        F  0.18283636  0.25737493  0.19709068    -0.15000
F133        F  0.31164766  0.23627757  0.29567538    -0.15000
F134        F  0.31137987  0.23433789  0.19554671    -0.12700
C135        C  0.11931654  0.40456253  0.53405156     0.25400
C136        C  0.09598407  0.40824013  0.49327385    -0.22800
C137        C  0.10004179  0.38494694  0.45246432     0.20300
C138        C  0.12691545  0.35790732  0.45262830     0.25300
C139        C  0.15036047  0.35387598  0.49368675    -0.22700
C140        C  0.14624318  0.37764635  0.53438514     0.20200
F141        F  0.16759193  0.37430925  0.57526532    -0.12700
F142        F  0.11553318  0.42671717  0.57400912    -0.15000
F143        F  0.13019103  0.33605188  0.41229289    -0.15000
F144        F  0.07795151  0.38854739  0.41239701    -0.12700
C145        C  0.38470367  0.40077093  0.53252217     0.25400
C146        C  0.40714461  0.40560871  0.48992216    -0.22800
C147        C  0.40182733  0.38384623  0.44806262     0.20300
C148        C  0.37441321  0.35737116  0.44877506     0.25300
C149        C  0.35172837  0.35224704  0.49154048    -0.22700
C150        C  0.35722393  0.37439592  0.53342789     0.20200
F151        F  0.33651511  0.37014585  0.57574738    -0.12700
F152        F  0.38969792  0.42148072  0.57348200    -0.15000
F153        F  0.36964865  0.33734331  0.40713167    -0.15000
F154        F  0.42296507  0.38862902  0.40625909    -0.12700
C155        C  0.40766928  0.12652243  0.46171651     0.25400
C156        C  0.40423949  0.09467049  0.49202455    -0.22800
C157        C  0.37274968  0.08961624  0.52168532     0.20300
C158        C  0.34526460  0.11599654  0.52139648     0.25300
C159        C  0.34913047  0.14870663  0.49249316    -0.22700
C160        C  0.38073012  0.15345930  0.46237672     0.20200
F161        F  0.38598069  0.18430000  0.43370535    -0.12700
F162        F  0.43738226  0.13169751  0.43165094    -0.15000
F163        F  0.31489852  0.10927857  0.54952804    -0.15000
F164        F  0.36873626  0.05910452  0.55139822    -0.12700
C165        C  0.11465231  0.10145173  0.54499658     0.25400
C166        C  0.09173842  0.09830692  0.50389124    -0.22800
C167        C  0.09576745  0.12257113  0.46260318     0.20300
C168        C  0.12278162  0.14940048  0.46196485     0.25300
C169        C  0.14631661  0.15246875  0.50285547    -0.22700
C170        C  0.14165820  0.12832557  0.54464452     0.20200
F171        F  0.16293922  0.13088591  0.58549109    -0.12700
F172        F  0.11078696  0.07842680  0.58549239    -0.15000
F173        F  0.12649502  0.17159909  0.42059545    -0.15000
F174        F  0.07395892  0.11966122  0.42235555    -0.12700
C175        C  0.12465965  0.40799732  0.96895875     0.25400
C176        C  0.09382922  0.40346556  0.00008226    -0.22800
C177        C  0.09077286  0.37173677  0.03079749     0.20300
C178        C  0.11756970  0.34463668  0.02949820     0.25300
C179        C  0.14878219  0.34923825  0.99863657    -0.22700
C180        C  0.15203813  0.38154945  0.96871416     0.20200
F181        F  0.18169356  0.38782279  0.93894644    -0.12700
F182        F  0.12824459  0.43817736  0.93850330    -0.15000
F183        F  0.11266451  0.31387653  0.05844856    -0.15000
F184        F  0.06167354  0.36691889  0.06209575    -0.12700
C185        C  0.35717185  0.37257306  0.95304582     0.25400
C186        C  0.35082589  0.34981278  0.99581324    -0.22800
C187        C  0.37231294  0.35455436  0.03850602     0.20300
C188        C  0.39938202  0.38131974  0.03829792     0.25300
C189        C  0.40548355  0.40380169  0.99563907    -0.22700
C190        C  0.38423021  0.39937011  0.95310073     0.20200
F191        F  0.38996185  0.42087842  0.91146928    -0.12700
F192        F  0.33776548  0.36843777  0.91071676    -0.15000
F193        F  0.41941334  0.38570987  0.08001052    -0.15000
F194        F  0.36668647  0.33387403  0.08094120    -0.12700
C195        C  0.39988685  0.11570588  0.04034725     0.25400
C196        C  0.40528977  0.09354423  0.99868241    -0.22800
C197        C  0.38302087  0.09791794  0.95686416     0.20300
C198        C  0.35573057  0.12447414  0.95639768     0.25300
C199        C  0.35026814  0.14712761  0.99798944    -0.22700
C200        C  0.37260694  0.14227588  0.04013160     0.20200
F201        F  0.36763590  0.16265084  0.08165259    -0.12700
F202        F  0.42082301  0.11122159  0.08147283    -0.15000
F203        F  0.33517649  0.12838791  0.91481336    -0.15000
F204        F  0.38798863  0.07656281  0.91630193    -0.12700
C205        C  0.14370569  0.12461094  0.95725948     0.25400
C206        C  0.14870464  0.14704322  0.99898731    -0.22800
C207        C  0.12572908  0.14209435  0.04144344     0.20300
C208        C  0.09855049  0.11540261  0.04207596     0.25300
C209        C  0.09388172  0.09316616  0.00051610    -0.22700
C210        C  0.11654537  0.09792518  0.95814567     0.20200
F211        F  0.11192535  0.07701828  0.91728595    -0.12700
F212        F  0.16448818  0.12900359  0.91502779    -0.15000
F213        F  0.07683097  0.11103699  0.08338406    -0.15000
F214        F  0.12991462  0.16258129  0.08279067    -0.12700
N215        N  0.05471837  0.49860686  0.99848310    -0.34900
N216        N  0.49950493  0.55503252  0.00036402    -0.55400
N217        N  0.44416118  0.49881115  0.99588939    -0.34800
N218        N  0.49935065  0.94226176  0.99901708    -0.55400
C219        C  0.07451309  0.52813968  0.01074956     0.28700
C220        C  0.07425143  0.96846754  0.01108528     0.28700
C221        C  0.42361517  0.52833485  0.00676847     0.28700
C222        C  0.42355165  0.96877420  0.00542037     0.28700
C223        C  0.02893985  0.57648143  0.99267344     0.37400
C224        C  0.47036074  0.57659585  0.99209829     0.37400
C225        C  0.02891394  0.92161409  0.98927648     0.37400
C226        C  0.47031243  0.92174369  0.98771489     0.37400
C227        C  0.10699794  0.51672914  0.03129442    -0.20100
C228        C  0.10670423  0.97903618  0.03194358    -0.20100
C229        C  0.38947790  0.51695730  0.02309117    -0.20100
C230        C  0.38944033  0.97931038  0.02223251    -0.20100
C231        C  0.01849055  0.61192642  0.97991152    -0.21200
C232        C  0.48128908  0.61201071  0.97960508    -0.21200
C233        C  0.01856454  0.88786647  0.97147903    -0.21200
C234        C  0.48136538  0.88783459  0.97097359    -0.21200
C235        C  0.06490514  0.56504785  0.00092985    -0.16500
C236        C  0.06479580  0.93195887  0.00014057    -0.16500
C237        C  0.43398729  0.93236430  0.99581632    -0.16500
C238        C  0.43405596  0.56525775  0.99898045    -0.16500
H239        H  0.12874160  0.53380011  0.04418933     0.16400
H240        H  0.12828048  0.96143482  0.04533761     0.16400
H241        H  0.36678179  0.53402981  0.03385519     0.16400
H242        H  0.36671095  0.96173560  0.03213707     0.16400
H243        H  0.03582210  0.63537594  0.97241601     0.14700
H244        H  0.46424156  0.63552439  0.97167831     0.14700
H245        H  0.03592514  0.86539078  0.96066796     0.14700
H246        H  0.46439226  0.86539224  0.95983061     0.14700
H247        H  0.03151040  0.49910023  0.97694996     0.27900
H248        H  0.46908459  0.49930479  0.97730491     0.27900
N249        N  0.05540614  0.50224852  0.50044894    -0.34900
N250        N  0.49912023  0.55755627  0.49762648    -0.55400
N251        N  0.44502288  0.50032391  0.49323628    -0.34800
N252        N  0.50116256  0.94510217  0.49131921    -0.55400
C253        C  0.07540492  0.53292576  0.49252197     0.28700
C254        C  0.07655652  0.97344976  0.48817735     0.28700
C255        C  0.42529833  0.53025676  0.48041275     0.28700
C256        C  0.42611379  0.97066529  0.47929540     0.28700
C257        C  0.02738520  0.57846636  0.51085957     0.37400
C258        C  0.46891877  0.57743653  0.50649902     0.37400
C259        C  0.03061410  0.92406803  0.49998183     0.37400
C260        C  0.47205115  0.92304222  0.49814830     0.37400
C261        C  0.10977039  0.52351385  0.47538743    -0.20100
C262        C  0.11049793  0.98593231  0.47263866    -0.20100
C263        C  0.39368159  0.51944352  0.45751982    -0.20100
C264        C  0.39404166  0.98176164  0.45729021    -0.20100
C265        C  0.01519870  0.61182235  0.52820410    -0.21200
C266        C  0.47805655  0.61106312  0.52585796    -0.21200
C267        C  0.02020000  0.88838620  0.51189533    -0.21200
C268        C  0.48300834  0.88775482  0.51079006    -0.21200
C269        C  0.06404360  0.56891226  0.50328055    -0.16500
C270        C  0.06677572  0.93614512  0.49390975    -0.16500
C271        C  0.43598974  0.93389990  0.48928624    -0.16500
C272        C  0.43366943  0.56667214  0.49308813    -0.16500
H273        H  0.13212235  0.54178378  0.46631264     0.16400
H274        H  0.13352968  0.96962149  0.46104017     0.16400
H275        H  0.37215334  0.53685196  0.44352688     0.16400
H276        H  0.37296668  0.96448324  0.44297519     0.16400
H277        H  0.03140318  0.63444668  0.54066092     0.14700
H278        H  0.45994917  0.63303965  0.53629547     0.14700
H279        H  0.03758618  0.86516690  0.52002741     0.14700
H280        H  0.46603184  0.86395828  0.51766373     0.14700
H281        H  0.03031481  0.50075854  0.51865716     0.27900
H282        H  0.46758821  0.49989692  0.51612567     0.27900
O283        O  0.17482898  0.70254199  0.02711717    -0.76700
C284        C  0.24767227  0.74664812  0.13751371     0.84300
O285        O  0.20485848  0.82514703  0.96796528    -0.77900
O286        O  0.32446164  0.79391479  0.02618912    -0.79300
O287        O  0.29526587  0.67285289  0.96746839    -0.79100
O288        O  0.20455375  0.67206368  0.96810615    -0.77800
Zn289      Zn  0.20528328  0.74736576  0.03996077     1.55700
O290        O  0.32412564  0.70243078  0.02694126    -0.79200
Cd291      Cd  0.24965162  0.70439943  0.95414456     1.59700
Cd292      Cd  0.25002847  0.79347942  0.95342911     1.59600
O293        O  0.24935770  0.71949045  0.87893605    -0.79100
O294        O  0.24871259  0.74834201  0.99730787    -1.89700
Cd295      Cd  0.29266669  0.74805985  0.03967803     1.59900
O296        O  0.24971651  0.78046005  0.87819967    -0.79100
O297        O  0.27810854  0.74719701  0.11436436    -0.77800
C298        C  0.17766482  0.82072137  0.99757765     0.84800
C299        C  0.17756601  0.67538323  0.99808086     0.84400
O300        O  0.21800119  0.74659509  0.11368464    -0.76700
C301        C  0.32164896  0.67566036  0.99741865     0.85200
O302        O  0.17479601  0.79237249  0.02624241    -0.76800
C303        C  0.24930201  0.75022765  0.85524041     0.85400
C304        C  0.32212274  0.82133171  0.99592669     0.85700
O305        O  0.29575001  0.82483471  0.96584881    -0.79200
O306        O  0.17574754  0.79747924  0.46632000    -0.76700
C307        C  0.24806079  0.75001883  0.35546307     0.84300
O308        O  0.20293685  0.67559734  0.53002332    -0.77900
O309        O  0.32377233  0.70557950  0.46455020    -0.79300
O310        O  0.29613707  0.82690370  0.52336751    -0.79100
O311        O  0.20548236  0.82833991  0.52358923    -0.77800
Zn312      Zn  0.20532470  0.75173439  0.45459035     1.55700
O313        O  0.32494962  0.79735918  0.46254938    -0.79200
Cd314      Cd  0.24998445  0.79580745  0.53772576     1.59700
Cd315      Cd  0.24900616  0.70661254  0.54017330     1.59600
O316        O  0.24884258  0.78157401  0.61323133    -0.79100
O317        O  0.24862456  0.75142681  0.49550752    -1.89700
Cd318      Cd  0.29281455  0.75181324  0.45145176     1.59900
O319        O  0.24936647  0.72058122  0.61510607    -0.79100
O320        O  0.27849766  0.75137705  0.37716373    -0.77800
C321        C  0.17582165  0.68016718  0.50152943     0.84800
C322        C  0.17873103  0.82504563  0.49443890     0.84400
O323        O  0.21838658  0.74991928  0.38062136    -0.76700
C324        C  0.32269497  0.82400063  0.49251207     0.85200
O325        O  0.17366155  0.70786448  0.47166636    -0.76800
C326        C  0.24887365  0.75106889  0.63749293     0.85400
C327        C  0.32070263  0.67769687  0.49397058     0.85700
O328        O  0.29395570  0.67427033  0.52467144    -0.79200
C329        C  0.26098268  0.78157472  0.77148452     0.25400
C330        C  0.24867603  0.75072643  0.79953670    -0.22800
C331        C  0.23576955  0.72026683  0.77373255     0.20300
C332        C  0.23561383  0.72046758  0.72125851     0.25300
C333        C  0.24841238  0.75110179  0.69320292    -0.22700
C334        C  0.26082846  0.78176990  0.71900070     0.18800
F335        F  0.27375376  0.81177628  0.69352434    -0.12700
F336        F  0.27410979  0.81136088  0.79469625    -0.15000
F337        F  0.22210434  0.69086467  0.69802621    -0.15000
F338        F  0.22250060  0.69040732  0.79920367    -0.12700
C339        C  0.21475456  0.75206441  0.22083571     0.25400
C340        C  0.24715832  0.74635828  0.19335390    -0.22800
C341        C  0.27952016  0.74093803  0.21993026     0.20300
C342        C  0.27966560  0.74195862  0.27221321     0.25300
C343        C  0.24743905  0.74834829  0.29975353    -0.22700
C344        C  0.21488920  0.75301201  0.27333925     0.20200
F345        F  0.18307047  0.75908615  0.29806811    -0.12700
F346        F  0.18283636  0.75737477  0.19708988    -0.15000
F347        F  0.31164757  0.73627823  0.29567496    -0.15000
F348        F  0.31137983  0.73433780  0.19554633    -0.12700
C349        C  0.11931748  0.90456353  0.53405098     0.25400
C350        C  0.09598453  0.90824057  0.49327372    -0.22800
C351        C  0.10004164  0.88494683  0.45246473     0.20300
C352        C  0.12691535  0.85790730  0.45262868     0.25300
C353        C  0.15036081  0.85387646  0.49368677    -0.22700
C354        C  0.14624415  0.87764740  0.53438460     0.20200
F355        F  0.16759331  0.87431083  0.57526444    -0.12700
F356        F  0.11553475  0.92671894  0.57400780    -0.15000
F357        F  0.13019043  0.83605134  0.41229369    -0.15000
F358        F  0.07795080  0.88854668  0.41239790    -0.12700
C359        C  0.38470296  0.90077159  0.53252205     0.25400
C360        C  0.40714501  0.90560841  0.48992299    -0.22800
C361        C  0.40182889  0.88384494  0.44806414     0.20300
C362        C  0.37441492  0.85736974  0.44877639     0.25300
C363        C  0.35172876  0.85224673  0.49154073    -0.22700
C364        C  0.35722322  0.87439660  0.53342743     0.20200
F365        F  0.33651327  0.87014759  0.57574595    -0.12700
F366        F  0.38969617  0.92148226  0.57348131    -0.15000
F367        F  0.36965178  0.83734077  0.40713370    -0.15000
F368        F  0.42296782  0.88862667  0.40626150    -0.12700
C369        C  0.40766830  0.62652235  0.46171518     0.25400
C370        C  0.40423879  0.59467049  0.49202343    -0.22800
C371        C  0.37274907  0.58961619  0.52168439     0.20300
C372        C  0.34526394  0.61599645  0.52139577     0.25300
C373        C  0.34912966  0.64870653  0.49249244    -0.22700
C374        C  0.38072906  0.65345914  0.46237543     0.20200
F375        F  0.38597944  0.68429979  0.43370380    -0.12700
F376        F  0.43738103  0.63169742  0.43164918    -0.15000
F377        F  0.31489795  0.60927853  0.54952757    -0.15000
F378        F  0.36873578  0.55910451  0.55139737    -0.12700
C379        C  0.11465151  0.60145216  0.54499436     0.25400
C380        C  0.09173793  0.59830715  0.50388879    -0.22800
C381        C  0.09576691  0.62257151  0.46260083     0.20300
C382        C  0.12278082  0.64940115  0.46196283     0.25300
C383        C  0.14631579  0.65246925  0.50285348    -0.22700
C384        C  0.14165724  0.62832611  0.54464256     0.20200
F385        F  0.16293806  0.63088655  0.58548933    -0.12700
F386        F  0.11078597  0.57842733  0.58549015    -0.15000
F387        F  0.12649426  0.67159986  0.42059350    -0.15000
F388        F  0.07395836  0.61966174  0.42235321    -0.12700
C389        C  0.12466041  0.90799778  0.96895929     0.25400
C390        C  0.09382997  0.90346600  0.00008281    -0.22800
C391        C  0.09077381  0.87173735  0.03079834     0.20300
C392        C  0.11757064  0.84463724  0.02949893     0.25300
C393        C  0.14878302  0.84923871  0.99863704    -0.22700
C394        C  0.15203889  0.88154988  0.96871457     0.20200
F395        F  0.18169433  0.88782330  0.93894685    -0.12700
F396        F  0.12824526  0.93817778  0.93850369    -0.15000
F397        F  0.11266560  0.81387720  0.05844957    -0.15000
F398        F  0.06167462  0.86691952  0.06209687    -0.12700
C399        C  0.35717122  0.87257474  0.95304794     0.25400
C400        C  0.35082641  0.84981285  0.99581415    -0.22800
C401        C  0.37231439  0.85455321  0.03850641     0.20300
C402        C  0.39938346  0.88131863  0.03829875     0.25300
C403        C  0.40548392  0.90380208  0.99564104    -0.22700
C404        C  0.38422939  0.89937202  0.95310344     0.20200
F405        F  0.38995982  0.92088197  0.91147319    -0.12700
F406        F  0.33776381  0.86844094  0.91071949    -0.15000
F407        F  0.41941569  0.88570753  0.08001082    -0.15000
F408        F  0.36668913  0.83387137  0.08094055    -0.12700
C409        C  0.39988588  0.61570502  0.04034599     0.25400
C410        C  0.40528898  0.59354379  0.99868081    -0.22800
C411        C  0.38302016  0.59791767  0.95686249     0.20300
C412        C  0.35572987  0.62447385  0.95639616     0.25300
C413        C  0.35026741  0.64712708  0.99798812    -0.22700
C414        C  0.37260593  0.64227493  0.04013050     0.20200
F415        F  0.36763476  0.66264958  0.08165172    -0.12700
F416        F  0.42082196  0.61122038  0.08147167    -0.15000
F417        F  0.33517596  0.62838799  0.91481173    -0.15000
F418        F  0.38798804  0.57656276  0.91630006    -0.12700
C419        C  0.14370493  0.62461054  0.95726065     0.25400
C420        C  0.14870373  0.64704328  0.99898799    -0.22800
C421        C  0.12572803  0.64209474  0.04144409     0.20300
C422        C  0.09854963  0.61540273  0.04207707     0.25300
C423        C  0.09388108  0.59316580  0.00051766    -0.22700
C424        C  0.11654479  0.59792460  0.95814726     0.20200
F425        F  0.11192493  0.57701743  0.91728778    -0.12700
F426        F  0.16448740  0.62900293  0.91502893    -0.15000
F427        F  0.07683005  0.61103738  0.08338514    -0.15000
F428        F  0.12991321  0.66258228  0.08279081    -0.12700
N429        N  0.55471939  0.99860718  0.99848306    -0.34900
N430        N  0.99950576  0.05503283  0.00036409    -0.55400
N431        N  0.94416241  0.99881174  0.99589090    -0.34800
N432        N  0.99935008  0.44226120  0.99901535    -0.55400
C433        C  0.57451389  0.02814006  0.01074872     0.28700
C434        C  0.57425070  0.46846711  0.01108479     0.28700
C435        C  0.92361618  0.02833546  0.00677038     0.28700
C436        C  0.92355110  0.46877379  0.00541809     0.28700
C437        C  0.52894045  0.07648154  0.99267219     0.37400
C438        C  0.97036158  0.07659620  0.99209877     0.37400
C439        C  0.52891330  0.42161373  0.98927489     0.37400
C440        C  0.97031195  0.42174315  0.98771271     0.37400
C441        C  0.60699889  0.01672961  0.03129363    -0.20100
C442        C  0.60670338  0.47903576  0.03194365    -0.20100
C443        C  0.88947924  0.01695794  0.02309347    -0.20100
C444        C  0.88943979  0.47931009  0.02222987    -0.20100
C445        C  0.51849081  0.11192641  0.97991022    -0.21200
C446        C  0.98128987  0.11201091  0.97960479    -0.21200
C447        C  0.51856399  0.38786617  0.97147714    -0.21200
C448        C  0.98136498  0.38783403  0.97097116    -0.21200
C449        C  0.56490590  0.06504817  0.00092845    -0.16500
C450        C  0.56479504  0.43195839  0.00013984    -0.16500
C451        C  0.93398686  0.43236390  0.99581400    -0.16500
C452        C  0.93405691  0.06525828  0.99898196    -0.16500
H453        H  0.62874252  0.03380070  0.04418817     0.16400
H454        H  0.62827947  0.46143414  0.04533760     0.16400
H455        H  0.86678304  0.03403014  0.03385797     0.16400
H456        H  0.86671035  0.46173518  0.03213351     0.16400
H457        H  0.53582214  0.13537588  0.97241372     0.14700
H458        H  0.96424254  0.13552477  0.97167810     0.14700
H459        H  0.53592485  0.36539062  0.96066640     0.14700
H460        H  0.96439194  0.36539164  0.95982806     0.14700
H461        H  0.53151071  0.99910031  0.97694928     0.27900
H462        H  0.96908467  0.99930540  0.97730670     0.27900
N463        N  0.55540654  0.00224849  0.50044995    -0.34900
N464        N  0.99912076  0.05755597  0.49762869    -0.55400
N465        N  0.94502382  0.00032368  0.49323815    -0.34800
N466        N  0.00116232  0.44510215  0.49131868    -0.55400
C467        C  0.57540522  0.03292576  0.49252335     0.28700
C468        C  0.57655636  0.47344958  0.48817734     0.28700
C469        C  0.92529901  0.03025659  0.48041428     0.28700
C470        C  0.92611342  0.47066530  0.47929417     0.28700
C471        C  0.52738558  0.07846621  0.51086205     0.37400
C472        C  0.96891924  0.07743632  0.50650087     0.37400
C473        C  0.53061377  0.42406803  0.49998154     0.37400
C474        C  0.97205081  0.42304224  0.49814758     0.37400
C475        C  0.60977049  0.02351402  0.47538777    -0.20100
C476        C  0.61049793  0.48593195  0.47263918    -0.20100
C477        C  0.89368253  0.01944331  0.45752118    -0.20100
C478        C  0.89404124  0.48176161  0.45728897    -0.20100
C479        C  0.51519905  0.11182230  0.52820632    -0.21200
C480        C  0.97805683  0.11106282  0.52585988    -0.21200
C481        C  0.52019951  0.38838625  0.51189482    -0.21200
C482        C  0.98300779  0.38775479  0.51078938    -0.21200
C483        C  0.56404403  0.06891210  0.50328289    -0.16500
C484        C  0.56677544  0.43614494  0.49390985    -0.16500
C485        C  0.93598947  0.43390001  0.48928528    -0.16500
C486        C  0.93367009  0.06667202  0.49308949    -0.16500
H487        H  0.63212224  0.04178416  0.46631285     0.16400
H488        H  0.63352991  0.46962088  0.46104228     0.16400
H489        H  0.87215431  0.03685168  0.44352807     0.16400
H490        H  0.87296597  0.46448323  0.44297452     0.16400
H491        H  0.53140386  0.13444644  0.54066300     0.14700
H492        H  0.95994953  0.13303957  0.53629693     0.14700
H493        H  0.53758543  0.36516681  0.52002711     0.14700
H494        H  0.96603115  0.36395825  0.51766263     0.14700
H495        H  0.53031530  0.00075827  0.51865880     0.27900
H496        H  0.96758797  0.99989653  0.51612664     0.27900
O497        O  0.67482974  0.20254181  0.02711706    -0.76700
C498        C  0.74767226  0.24664840  0.13751428     0.84300
O499        O  0.70485783  0.32514686  0.96796538    -0.77900
O500        O  0.82446126  0.29391512  0.02618919    -0.79300
O501        O  0.79526669  0.17285327  0.96746915    -0.79100
O502        O  0.70455461  0.17206370  0.96810593    -0.77800
Zn503      Zn  0.70528334  0.24736584  0.03996117     1.55700
O504        O  0.82412595  0.20243127  0.02694237    -0.79200
Cd505      Cd  0.74965242  0.20439960  0.95414496     1.59700
Cd506      Cd  0.75002796  0.29347949  0.95342947     1.59600
O507        O  0.74935893  0.21949045  0.87893651    -0.79100
O508        O  0.74871269  0.24834218  0.99730841    -1.89700
Cd509      Cd  0.79266667  0.24806019  0.03967868     1.59900
O510        O  0.74971593  0.28046010  0.87820013    -0.79100
O511        O  0.77810855  0.24719752  0.11436495    -0.77800
C512        C  0.67766420  0.32072111  0.99757772     0.84800
C513        C  0.67756689  0.17538311  0.99808065     0.84400
O514        O  0.71800121  0.24659524  0.11368512    -0.76700
C515        C  0.82164958  0.17566084  0.99741970     0.85200
O516        O  0.67479558  0.29237229  0.02624257    -0.76800
C517        C  0.74930241  0.25022766  0.85524089     0.85400
C518        C  0.82212218  0.32133189  0.99592648     0.85700
O519        O  0.79574942  0.32483479  0.96584866    -0.79200
O520        O  0.67574756  0.29747874  0.46632007    -0.76700
C521        C  0.74806101  0.25001816  0.35546385     0.84300
O522        O  0.70293774  0.17559684  0.53002465    -0.77900
O523        O  0.82377303  0.20557964  0.46455065    -0.79300
O524        O  0.79613701  0.32690381  0.52336787    -0.79100
O525        O  0.70548210  0.32833952  0.52358943    -0.77800
Zn526      Zn  0.70532497  0.25173381  0.45459106     1.55700
O527        O  0.82494952  0.29735921  0.46254971    -0.79200
Cd528      Cd  0.74998442  0.29580733  0.53772617     1.59700
Cd529      Cd  0.74900693  0.20661236  0.54017400     1.59600
O530        O  0.74884236  0.28157393  0.61323179    -0.79100
O531        O  0.74862488  0.25142651  0.49550811    -1.89700
Cd532      Cd  0.79281486  0.25181305  0.45145235     1.59900
O533        O  0.74936731  0.22058112  0.61510661    -0.79100
O534        O  0.77849792  0.25137670  0.37716437    -0.77800
C535        C  0.67582240  0.18016657  0.50153100     0.84800
C536        C  0.67873082  0.32504517  0.49443899     0.84400
O537        O  0.71838684  0.24991834  0.38062223    -0.76700
C538        C  0.82269479  0.32400077  0.49251221     0.85200
O539        O  0.67366204  0.20786380  0.47166782    -0.76800
C540        C  0.74887387  0.25106882  0.63749344     0.85400
C541        C  0.82070346  0.17769701  0.49397111     0.85700
O542        O  0.79395658  0.17427041  0.52467203    -0.79200
C543        C  0.76098068  0.28157566  0.77148506     0.25400
C544        C  0.74867632  0.25072642  0.79953720    -0.22800
C545        C  0.73577197  0.22026589  0.77373301     0.20300
C546        C  0.73561612  0.22046667  0.72125900     0.25300
C547        C  0.74841251  0.25110182  0.69320345    -0.22700
C548        C  0.76082634  0.28177089  0.71900128     0.18800
F549        F  0.77374940  0.31177827  0.69352493    -0.12700
F550        F  0.77410566  0.31136283  0.79469665    -0.15000
F551        F  0.72210876  0.19086269  0.69802677    -0.15000
F552        F  0.72250526  0.19040536  0.79920408    -0.12700
C553        C  0.71475455  0.25206438  0.22083648     0.25400
C554        C  0.74715830  0.24635854  0.19335455    -0.22800
C555        C  0.77952017  0.24093813  0.21993082     0.20300
C556        C  0.77966569  0.24195842  0.27221381     0.25300
C557        C  0.74743916  0.24834774  0.29975429    -0.22700
C558        C  0.71488931  0.25301168  0.27334005     0.20200
F559        F  0.68307066  0.25908544  0.29806902    -0.12700
F560        F  0.68283639  0.25737491  0.19709067    -0.15000
F561        F  0.81164771  0.23627779  0.29567539    -0.15000
F562        F  0.81137989  0.23433818  0.19554673    -0.12700
C563        C  0.61931653  0.40456251  0.53405164     0.25400
C564        C  0.59598406  0.40824012  0.49327395    -0.22800
C565        C  0.60004179  0.38494701  0.45246435     0.20300
C566        C  0.62691551  0.35790744  0.45262824     0.25300
C567        C  0.65036043  0.35387598  0.49368682    -0.22700
C568        C  0.64624315  0.37764633  0.53438521     0.20200
F569        F  0.66759184  0.37430910  0.57526542    -0.12700
F570        F  0.61553316  0.42671715  0.57400917    -0.15000
F571        F  0.63019120  0.33605208  0.41229275    -0.15000
F572        F  0.57795156  0.38854753  0.41239701    -0.12700
C573        C  0.88470363  0.40077093  0.53252217     0.25400
C574        C  0.90714457  0.40560868  0.48992214    -0.22800
C575        C  0.90182727  0.38384622  0.44806261     0.20300
C576        C  0.87441317  0.35737116  0.44877504     0.25300
C577        C  0.85172834  0.35224705  0.49154046    -0.22700
C578        C  0.85722389  0.37439592  0.53342788     0.20200
F579        F  0.83651507  0.37014585  0.57574737    -0.12700
F580        F  0.88969788  0.42148072  0.57348199    -0.15000
F581        F  0.86964860  0.33734331  0.40713166    -0.15000
F582        F  0.92296502  0.38862902  0.40625908    -0.12700
C583        C  0.90766922  0.12652242  0.46171650     0.25400
C584        C  0.90423946  0.09467047  0.49202453    -0.22800
C585        C  0.87274966  0.08961622  0.52168529     0.20300
C586        C  0.84526458  0.11599652  0.52139643     0.25300
C587        C  0.84913048  0.14870665  0.49249317    -0.22700
C588        C  0.88073015  0.15345936  0.46237684     0.20200
F589        F  0.88598079  0.18430012  0.43370563    -0.12700
F590        F  0.93738219  0.13169754  0.43165100    -0.15000
F591        F  0.81489851  0.10927858  0.54952799    -0.15000
F592        F  0.86873623  0.05910451  0.55139821    -0.12700
C593        C  0.61465224  0.10145172  0.54499649     0.25400
C594        C  0.59173848  0.09830687  0.50389103    -0.22800
C595        C  0.59576746  0.12257114  0.46260304     0.20300
C596        C  0.62278162  0.14940045  0.46196481     0.25300
C597        C  0.64631659  0.15246866  0.50285542    -0.22700
C598        C  0.64165813  0.12832554  0.54464454     0.20200
F599        F  0.66293918  0.13088590  0.58549110    -0.12700
F600        F  0.61078673  0.07842689  0.58549234    -0.15000
F601        F  0.62649497  0.17159907  0.42059545    -0.15000
F602        F  0.57395890  0.11966125  0.42235543    -0.12700
C603        C  0.62465961  0.40799719  0.96895863     0.25400
C604        C  0.59382922  0.40346546  0.00008219    -0.22800
C605        C  0.59077286  0.37173673  0.03079754     0.20300
C606        C  0.61756969  0.34463662  0.02949830     0.25300
C607        C  0.64878215  0.34923816  0.99863663    -0.22700
C608        C  0.65203810  0.38154936  0.96871422     0.20200
F609        F  0.68169347  0.38782273  0.93894644    -0.12700
F610        F  0.62824456  0.43817728  0.93850315    -0.15000
F611        F  0.61266455  0.31387657  0.05844882    -0.15000
F612        F  0.56167348  0.36691895  0.06209573    -0.12700
C613        C  0.85717183  0.37257312  0.95304587     0.25400
C614        C  0.85082588  0.34981286  0.99581335    -0.22800
C615        C  0.87231296  0.35455438  0.03850613     0.20300
C616        C  0.89938210  0.38131969  0.03829798     0.25300
C617        C  0.90548350  0.40380175  0.99563919    -0.22700
C618        C  0.88423016  0.39937020  0.95310081     0.20200
F619        F  0.88996174  0.42087866  0.91146946    -0.12700
F620        F  0.83776544  0.36843782  0.91071679    -0.15000
F621        F  0.91941348  0.38570980  0.08001055    -0.15000
F622        F  0.86668647  0.33387403  0.08094132    -0.12700
C623        C  0.89988690  0.11570589  0.04034713     0.25400
C624        C  0.90528982  0.09354429  0.99868225    -0.22800
C625        C  0.88302081  0.09791791  0.95686410     0.20300
C626        C  0.85573057  0.12447418  0.95639763     0.25300
C627        C  0.85026814  0.14712764  0.99798937    -0.22700
C628        C  0.87260695  0.14227587  0.04013152     0.20200
F629        F  0.86763604  0.16265090  0.08165250    -0.12700
F630        F  0.92082309  0.11122157  0.08147275    -0.15000
F631        F  0.83517646  0.12838789  0.91481338    -0.15000
F632        F  0.88798859  0.07656281  0.91630185    -0.12700
C633        C  0.64370567  0.12461089  0.95725955     0.25400
C634        C  0.64870463  0.14704319  0.99898735    -0.22800
C635        C  0.62572907  0.14209432  0.04144347     0.20300
C636        C  0.59855049  0.11540260  0.04207606     0.25300
C637        C  0.59388167  0.09316620  0.00051621    -0.22700
C638        C  0.61654530  0.09792520  0.95814575     0.20200
F639        F  0.61192529  0.07701831  0.91728604    -0.12700
F640        F  0.66448814  0.12900360  0.91502783    -0.15000
F641        F  0.57683101  0.11103700  0.08338417    -0.15000
F642        F  0.62991463  0.16258129  0.08279062    -0.12700
N643        N  0.55471820  0.49860682  0.99848252    -0.34900
N644        N  0.99950504  0.55503254  0.00036429    -0.55400
N645        N  0.94416188  0.49881120  0.99588878    -0.34800
N646        N  0.99935069  0.94226176  0.99901697    -0.55400
C647        C  0.57451313  0.52813964  0.01074940     0.28700
C648        C  0.57425137  0.96846761  0.01108524     0.28700
C649        C  0.92361530  0.52833489  0.00676847     0.28700
C650        C  0.92355195  0.96877439  0.00542031     0.28700
C651        C  0.52893972  0.57648136  0.99267316     0.37400
C652        C  0.97036091  0.57659582  0.99209860     0.37400
C653        C  0.52891390  0.92161412  0.98927648     0.37400
C654        C  0.97031247  0.92174368  0.98771486     0.37400
C655        C  0.60699806  0.51672906  0.03129439    -0.20100
C656        C  0.60670412  0.97903638  0.03194363    -0.20100
C657        C  0.88947824  0.51695732  0.02309121    -0.20100
C658        C  0.88944087  0.97931083  0.02223227    -0.20100
C659        C  0.51849015  0.61192629  0.97991121    -0.21200
C660        C  0.98128949  0.61201059  0.97960539    -0.21200
C661        C  0.51856454  0.88786646  0.97147911    -0.21200
C662        C  0.98136538  0.88783458  0.97097359    -0.21200
C663        C  0.56490507  0.56504785  0.00092970    -0.16500
C664        C  0.56479579  0.93195884  0.00014079    -0.16500
C665        C  0.93398738  0.93236439  0.99581621    -0.16500
C666        C  0.93405614  0.56525778  0.99898069    -0.16500
H667        H  0.62874147  0.53380016  0.04418988     0.16400
H668        H  0.62828012  0.96143483  0.04533778     0.16400
H669        H  0.86678214  0.53402979  0.03385554     0.16400
H670        H  0.86671158  0.96173608  0.03213682     0.16400
H671        H  0.53582165  0.63537580  0.97241579     0.14700
H672        H  0.96424198  0.63552430  0.97167899     0.14700
H673        H  0.53592519  0.86539082  0.96066798     0.14700
H674        H  0.96439225  0.86539221  0.95983075     0.14700
H675        H  0.53151105  0.49910014  0.97694947     0.27900
H676        H  0.96908352  0.49930483  0.97730518     0.27900
N677        N  0.55540624  0.50224852  0.50044886    -0.34900
N678        N  0.99912035  0.55755606  0.49762652    -0.55400
N679        N  0.94502310  0.50032375  0.49323630    -0.34800
N680        N  0.00116262  0.94510216  0.49131919    -0.55400
C681        C  0.57540495  0.53292577  0.49252195     0.28700
C682        C  0.57655649  0.97344976  0.48817732     0.28700
C683        C  0.92529849  0.53025658  0.48041285     0.28700
C684        C  0.92611389  0.97066528  0.47929550     0.28700
C685        C  0.52738511  0.57846644  0.51085964     0.37400
C686        C  0.96891888  0.57743625  0.50649898     0.37400
C687        C  0.53061408  0.92406805  0.49998180     0.37400
C688        C  0.97205121  0.92304220  0.49814828     0.37400
C689        C  0.60977050  0.52351378  0.47538751    -0.20100
C690        C  0.61049792  0.98593229  0.47263865    -0.20100
C691        C  0.89368191  0.51944332  0.45751984    -0.20100
C692        C  0.89404190  0.98176164  0.45729034    -0.20100
C693        C  0.51519863  0.61182252  0.52820398    -0.21200
C694        C  0.97805669  0.61106272  0.52585786    -0.21200
C695        C  0.52019998  0.88838622  0.51189531    -0.21200
C696        C  0.98300839  0.88775481  0.51079006    -0.21200
C697        C  0.56404357  0.56891231  0.50328048    -0.16500
C698        C  0.56677572  0.93614512  0.49390977    -0.16500
C699        C  0.93598992  0.93389992  0.48928616    -0.16500
C700        C  0.93366947  0.56667201  0.49308811    -0.16500
H701        H  0.63212240  0.54178378  0.46631267     0.16400
H702        H  0.63352969  0.96962146  0.46104031     0.16400
H703        H  0.87215380  0.53685186  0.44352683     0.16400
H704        H  0.87296683  0.96448324  0.44297546     0.16400
H705        H  0.53140342  0.63444664  0.54066082     0.14700
H706        H  0.95994919  0.63303920  0.53629507     0.14700
H707        H  0.53758620  0.86516695  0.52002738     0.14700
H708        H  0.96603189  0.86395826  0.51766373     0.14700
H709        H  0.53031476  0.50075857  0.51865702     0.27900
H710        H  0.96758805  0.49989663  0.51612567     0.27900
O711        O  0.67482899  0.70254200  0.02711709    -0.76700
C712        C  0.74767224  0.74664806  0.13751368     0.84300
O713        O  0.70485847  0.82514704  0.96796526    -0.77900
O714        O  0.82446158  0.79391482  0.02618931    -0.79300
O715        O  0.79526588  0.67285295  0.96746840    -0.79100
O716        O  0.70455374  0.67206361  0.96810616    -0.77800
Zn717      Zn  0.70528324  0.74736577  0.03996075     1.55700
O718        O  0.82412565  0.70243079  0.02694134    -0.79200
Cd719      Cd  0.74965158  0.70439943  0.95414453     1.59700
Cd720      Cd  0.75002844  0.79347944  0.95342908     1.59600
O721        O  0.74935777  0.71949045  0.87893600    -0.79100
O722        O  0.74871255  0.74834203  0.99730786    -1.89700
Cd723      Cd  0.79266665  0.74805986  0.03967805     1.59900
O724        O  0.74971641  0.78046007  0.87819968    -0.79100
O725        O  0.77810852  0.74719697  0.11436434    -0.77800
C726        C  0.67766481  0.82072137  0.99757763     0.84800
C727        C  0.67756602  0.67538319  0.99808087     0.84400
O728        O  0.71800117  0.74659505  0.11368461    -0.76700
C729        C  0.82164898  0.67566042  0.99741867     0.85200
O730        O  0.67479599  0.79237249  0.02624239    -0.76800
C731        C  0.74930208  0.75022768  0.85524041     0.85400
C732        C  0.82212276  0.82133169  0.99592669     0.85700
O733        O  0.79575003  0.82483468  0.96584876    -0.79200
O734        O  0.67574756  0.79747934  0.46631994    -0.76700
C735        C  0.74806083  0.75001881  0.35546310     0.84300
O736        O  0.70293689  0.67559748  0.53002324    -0.77900
O737        O  0.82377238  0.70557955  0.46455010    -0.79300
O738        O  0.79613716  0.82690376  0.52336744    -0.79100
O739        O  0.70548244  0.82833993  0.52358930    -0.77800
Zn740      Zn  0.70532471  0.75173440  0.45459030     1.55700
O741        O  0.82494965  0.79735913  0.46254947    -0.79200
Cd742      Cd  0.74998447  0.79580744  0.53772574     1.59700
Cd743      Cd  0.74900625  0.70661256  0.54017328     1.59600
O744        O  0.74884260  0.78157401  0.61323131    -0.79100
O745        O  0.74862456  0.75142679  0.49550751    -1.89700
Cd746      Cd  0.79281453  0.75181324  0.45145174     1.59900
O747        O  0.74936659  0.72058121  0.61510605    -0.79100
O748        O  0.77849769  0.75137706  0.37716376    -0.77800
C749        C  0.67582172  0.68016722  0.50152930     0.84800
C750        C  0.67873107  0.82504566  0.49443897     0.84400
O751        O  0.71838666  0.74991930  0.38062144    -0.76700
C752        C  0.82269505  0.82400065  0.49251200     0.85200
O753        O  0.67366159  0.70786449  0.47166626    -0.76800
C754        C  0.74887358  0.75106887  0.63749292     0.85400
C755        C  0.82070266  0.67769685  0.49397039     0.85700
O756        O  0.79395575  0.67427026  0.52467130    -0.79200
C757        C  0.76098262  0.78157478  0.77148452     0.25400
C758        C  0.74867606  0.75072648  0.79953672    -0.22800
C759        C  0.73576961  0.72026686  0.77373258     0.20300
C760        C  0.73561381  0.72046760  0.72125853     0.25300
C761        C  0.74841246  0.75110176  0.69320293    -0.22700
C762        C  0.76082846  0.78176993  0.71900070     0.18800
F763        F  0.77375372  0.81177633  0.69352429    -0.12700
F764        F  0.77410968  0.81136097  0.79469619    -0.15000
F765        F  0.72210434  0.69086466  0.69802618    -0.15000
F766        F  0.72250057  0.69040737  0.79920363    -0.12700
C767        C  0.71475449  0.75206433  0.22083563     0.25400
C768        C  0.74715829  0.74635830  0.19335385    -0.22800
C769        C  0.77952008  0.74093779  0.21993023     0.20300
C770        C  0.77966553  0.74195834  0.27221318     0.25300
C771        C  0.74743904  0.74834822  0.29975350    -0.22700
C772        C  0.71488921  0.75301219  0.27333918     0.20200
F773        F  0.68307051  0.75908639  0.29806804    -0.12700
F774        F  0.68283632  0.75737485  0.19708975    -0.15000
F775        F  0.81164746  0.73627772  0.29567497    -0.15000
F776        F  0.81137976  0.73433748  0.19554632    -0.12700
C777        C  0.61931753  0.90456354  0.53405094     0.25400
C778        C  0.59598451  0.90824054  0.49327378    -0.22800
C779        C  0.60004164  0.88494683  0.45246474     0.20300
C780        C  0.62691534  0.85790727  0.45262867     0.25300
C781        C  0.65036087  0.85387650  0.49368672    -0.22700
C782        C  0.64624415  0.87764741  0.53438453     0.20200
F783        F  0.66759336  0.87431091  0.57526424    -0.12700
F784        F  0.61553475  0.92671890  0.57400779    -0.15000
F785        F  0.63019038  0.83605131  0.41229366    -0.15000
F786        F  0.57795077  0.88854667  0.41239791    -0.12700
C787        C  0.88470302  0.90077164  0.53252178     0.25400
C788        C  0.90714508  0.90560845  0.48992273    -0.22800
C789        C  0.90182901  0.88384488  0.44806393     0.20300
C790        C  0.87441497  0.85736974  0.44877615     0.25300
C791        C  0.85172890  0.85224671  0.49154056    -0.22700
C792        C  0.85722332  0.87439662  0.53342722     0.20200
F793        F  0.83651338  0.87014760  0.57574580    -0.12700
F794        F  0.88969616  0.92148232  0.57348104    -0.15000
F795        F  0.86965176  0.83734070  0.40713356    -0.15000
F796        F  0.92296792  0.88862664  0.40626134    -0.12700
C797        C  0.90766838  0.62652235  0.46171523     0.25400
C798        C  0.90423873  0.59467038  0.49202328    -0.22800
C799        C  0.87274901  0.58961619  0.52168431     0.20300
C800        C  0.84526386  0.61599643  0.52139550     0.25300
C801        C  0.84912969  0.64870655  0.49249226    -0.22700
C802        C  0.88072916  0.65345915  0.46237542     0.20200
F803        F  0.88597955  0.68429981  0.43370386    -0.12700
F804        F  0.93738116  0.63169745  0.43164934    -0.15000
F805        F  0.81489789  0.60927847  0.54952729    -0.15000
F806        F  0.86873566  0.55910441  0.55139709    -0.12700
C807        C  0.61465150  0.60145224  0.54499437     0.25400
C808        C  0.59173799  0.59830716  0.50388867    -0.22800
C809        C  0.59576702  0.62257148  0.46260066     0.20300
C810        C  0.62278096  0.64940107  0.46196263     0.25300
C811        C  0.64631580  0.65246933  0.50285342    -0.22700
C812        C  0.64165720  0.62832625  0.54464257     0.20200
F813        F  0.66293802  0.63088678  0.58548936    -0.12700
F814        F  0.61078587  0.57842751  0.58549033    -0.15000
F815        F  0.62649439  0.67159983  0.42059337    -0.15000
F816        F  0.57395864  0.61966150  0.42235290    -0.12700
C817        C  0.62466038  0.90799779  0.96895939     0.25400
C818        C  0.59382995  0.90346597  0.00008295    -0.22800
C819        C  0.59077379  0.87173727  0.03079837     0.20300
C820        C  0.61757066  0.84463721  0.02949896     0.25300
C821        C  0.64878301  0.84923869  0.99863701    -0.22700
C822        C  0.65203885  0.88154987  0.96871456     0.20200
F823        F  0.68169428  0.88782332  0.93894685    -0.12700
F824        F  0.62824526  0.93817786  0.93850388    -0.15000
F825        F  0.61266567  0.81387721  0.05844966    -0.15000
F826        F  0.56167460  0.86691947  0.06209690    -0.12700
C827        C  0.85717135  0.87257476  0.95304788     0.25400
C828        C  0.85082637  0.84981301  0.99581422    -0.22800
C829        C  0.87231441  0.85455335  0.03850643     0.20300
C830        C  0.89938337  0.88131890  0.03829875     0.25300
C831        C  0.90548393  0.90380225  0.99564100    -0.22700
C832        C  0.88422956  0.89937198  0.95310335     0.20200
F833        F  0.88996006  0.92088171  0.91147301    -0.12700
F834        F  0.83776400  0.86844088  0.91071937    -0.15000
F835        F  0.91941558  0.88570778  0.08001075    -0.15000
F836        F  0.86668905  0.83387162  0.08094071    -0.12700
C837        C  0.89988583  0.61570510  0.04034611     0.25400
C838        C  0.90528901  0.59354382  0.99868098    -0.22800
C839        C  0.88302017  0.59791763  0.95686265     0.20300
C840        C  0.85572987  0.62447382  0.95639632     0.25300
C841        C  0.85026741  0.64712712  0.99798821    -0.22700
C842        C  0.87260590  0.64227500  0.04013061     0.20200
F843        F  0.86763471  0.66264964  0.08165186    -0.12700
F844        F  0.92082190  0.61122054  0.08147173    -0.15000
F845        F  0.83517599  0.62838797  0.91481189    -0.15000
F846        F  0.88798798  0.57656266  0.91630022    -0.12700
C847        C  0.64370492  0.62461054  0.95726063     0.25400
C848        C  0.64870375  0.64704326  0.99898799    -0.22800
C849        C  0.62572803  0.64209476  0.04144406     0.20300
C850        C  0.59854958  0.61540281  0.04207704     0.25300
C851        C  0.59388104  0.59316587  0.00051762    -0.22700
C852        C  0.61654478  0.59792462  0.95814725     0.20200
F853        F  0.61192488  0.57701743  0.91728778    -0.12700
F854        F  0.66448736  0.62900293  0.91502890    -0.15000
F855        F  0.57682995  0.61103753  0.08338508    -0.15000
F856        F  0.62991319  0.66258230  0.08279076    -0.12700
loop_ 
_geom_bond_atom_site_label_1 
_geom_bond_atom_site_label_2 
_geom_bond_distance 
_geom_bond_site_symmetry_2 
_ccdc_geom_bond_type 
N1           H33   1.039       .  S
N1            C5   1.353   1_566  A
N1          C220   1.353   1_556  A
N2           C10   1.350   1_554  A
N2          C437   1.350   1_554  A
N3           H34   1.038       .  S
N3            C7   1.351   1_566  A
N3          C222   1.352   1_556  A
N4           C12   1.351       .  A
N4          C439   1.351       .  A
C5           C13   1.386       .  A
C5           C21   1.412       .  A
C6          N215   1.353   1_554  A
C6           C22   1.417       .  A
C6           C14   1.388       .  A
C7           C15   1.387       .  A
C7           C24   1.412   1_554  A
C8          N217   1.352   1_554  A
C8           C23   1.412   1_554  A
C8           C16   1.386       .  A
C9          N430   1.350   1_456  A
C9           C21   1.410   1_556  A
C9           C17   1.386       .  A
C10          C24   1.411       .  A
C10          C18   1.386       .  A
C11         N432   1.351   1_455  A
C11          C19   1.387       .  A
C11          C22   1.414   1_556  A
C12          C20   1.385       .  A
C12          C23   1.410       .  A
C13         C228   1.376   1_545  A
C13          H25   1.082       .  S
C14         C227   1.376       .  A
C14          H26   1.082       .  S
C15         C230   1.375   1_545  A
C15          H27   1.082       .  S
C16         C229   1.375       .  A
C16          H28   1.082       .  S
C17         C446   1.373   1_455  A
C17          H29   1.082       .  S
C18         C445   1.373       .  A
C18          H30   1.082       .  S
C19         C448   1.373   1_455  A
C19          H31   1.082       .  S
C20         C447   1.373       .  A
C20          H32   1.082       .  S
C21         C209   1.483       .  S
C22         C176   1.492       .  S
C23         C189   1.483       .  S
C24         C196   1.480       .  S
N35          H67   1.039       .  S
N35          C39   1.353       .  A
N35         C254   1.352   1_545  A
N36          C44   1.350       .  A
N36         C471   1.350       .  A
N37          H68   1.040   1_545  S
N37          C41   1.352       .  A
N37         C256   1.352   1_545  A
N38          C46   1.351       .  A
N38         C473   1.350       .  A
C39          C47   1.387       .  A
C39          C55   1.413       .  A
C40         N249   1.352       .  A
C40          C56   1.414       .  A
C40          C48   1.387       .  A
C41          C49   1.388       .  A
C41          C58   1.416       .  A
C42         N251   1.352       .  A
C42          C57   1.411       .  A
C42          C50   1.385       .  A
C43         N464   1.350   1_455  A
C43          C55   1.409       .  A
C43          C51   1.385       .  A
C44          C58   1.414       .  A
C44          C52   1.387       .  A
C45         N466   1.350       .  A
C45          C53   1.387       .  A
C45          C56   1.412       .  A
C46          C54   1.385       .  A
C46          C57   1.410       .  A
C47         C262   1.376   1_545  A
C47          H59   1.082       .  S
C48         C261   1.376       .  A
C48          H60   1.082       .  S
C49         C264   1.376   1_545  A
C49          H61   1.082       .  S
C50         C263   1.376       .  A
C50          H62   1.082       .  S
C51         C480   1.374   1_455  A
C51          H63   1.082       .  S
C52         C479   1.374       .  A
C52          H64   1.082       .  S
C53         C482   1.374   1_455  A
C53          H65   1.082       .  S
C54         C481   1.374       .  A
C54          H66   1.082       .  S
C55         C166   1.484       .  S
C56         C136   1.482       .  S
C57         C146   1.484       .  S
C58         C156   1.491       .  S
O69          C85   1.275   1_554  A
O69         Zn75   2.026       .  S
C70         C126   1.488       .  S
C70          O86   1.275       .  A
C70          O83   1.273       .  A
O71          C84   1.275       .  A
O71         Cd78   2.064       .  S
O72          C90   1.274   1_554  A
O72         Cd81   2.067       .  S
O73          C87   1.275       .  A
O73         Cd77   2.069       .  S
O74          C85   1.274       .  A
O74         Cd77   2.066       .  S
Zn75         O86   2.027       .  S
Zn75         O88   2.020       .  S
Zn75         O80   1.950   1_554  S
O76          C87   1.274   1_554  A
O76         Cd81   2.061       .  S
Cd77         O79   2.066       .  S
Cd77         O80   1.997       .  S
Cd78         O82   2.072       .  S
Cd78         O91   2.076       .  S
Cd78         O80   1.998       .  S
O79          C89   1.274       .  A
O80         Cd81   1.992   1_556  S
Cd81         O83   2.053       .  S
O82          C89   1.275       .  A
C84         C179   1.489       .  S
C84          O88   1.275   1_556  A
C85         C206   1.486       .  S
C87         C199   1.482       .  S
C89         C116   1.485       .  S
C90         C186   1.486       .  S
C90          O91   1.275       .  A
O92         C108   1.275       .  A
O92         Zn98   2.022       .  S
C93         C129   1.488       .  S
C93         O109   1.275       .  A
C93         O106   1.274       .  A
O94         C107   1.274       .  A
O94        Cd101   2.070       .  S
O95         C113   1.274       .  A
O95        Cd104   2.063       .  S
O96         C110   1.275       .  A
O96        Cd100   2.074       .  S
O97         C108   1.274       .  A
O97        Cd100   2.060       .  S
Zn98        O109   2.024       .  S
Zn98        O111   2.023       .  S
Zn98        O103   1.949       .  S
O99         C110   1.275       .  A
O99        Cd104   2.074       .  S
Cd100       O102   2.066       .  S
Cd100       O103   1.996       .  S
Cd101       O105   2.073       .  S
Cd101       O114   2.077       .  S
Cd101       O103   2.000       .  S
O102        C112   1.274       .  A
O103       Cd104   1.994       .  S
Cd104       O106   2.058       .  S
O105        C112   1.276       .  A
C107        C169   1.487       .  S
C107        O111   1.275       .  A
C108        C139   1.484       .  S
C110        C149   1.488       .  S
C112        C119   1.484       .  S
C113        C159   1.490       .  S
C113        O114   1.276       .  A
C115        C116   1.408       .  A
C115        C120   1.399       .  A
C115        F122   1.358       .  S
C116        C117   1.409       .  A
C117        C118   1.398       .  A
C117        F124   1.358       .  S
C118        C119   1.408       .  A
C118        F123   1.358       .  S
C119        C120   1.409       .  A
C120        F121   1.358       .  S
C125        C126   1.410       .  A
C125        C130   1.401       .  A
C125        F132   1.358       .  S
C126        C127   1.410       .  A
C127        C128   1.395       .  A
C127        F134   1.358       .  S
C128        C129   1.410       .  A
C128        F133   1.358       .  S
C129        C130   1.410       .  A
C130        F131   1.358       .  S
C135        C136   1.401       .  A
C135        C140   1.397       .  A
C135        F142   1.358       .  S
C136        C137   1.403       .  A
C137        C138   1.398       .  A
C137        F144   1.358       .  S
C138        C139   1.411       .  A
C138        F143   1.358       .  S
C139        C140   1.411       .  A
C140        F141   1.358       .  S
C145        C146   1.402       .  A
C145        C150   1.399       .  A
C145        F152   1.358       .  S
C146        C147   1.402       .  A
C147        C148   1.400       .  A
C147        F154   1.358       .  S
C148        C149   1.412       .  A
C148        F153   1.358       .  S
C149        C150   1.412       .  A
C150        F151   1.358       .  S
C155        C156   1.405       .  A
C155        C160   1.398       .  A
C155        F162   1.358       .  S
C156        C157   1.405       .  A
C157        C158   1.398       .  A
C157        F164   1.358       .  S
C158        C159   1.412       .  A
C158        F163   1.358       .  S
C159        C160   1.413       .  A
C160        F161   1.358       .  S
C165        C166   1.402       .  A
C165        C170   1.400       .  A
C165        F172   1.358       .  S
C166        C167   1.402       .  A
C167        C168   1.399       .  A
C167        F174   1.358       .  S
C168        C169   1.411       .  A
C168        F173   1.358       .  S
C169        C170   1.412       .  A
C170        F171   1.358       .  S
C175        C176   1.405   1_556  A
C175        C180   1.397       .  A
C175        F182   1.358       .  S
C176        C177   1.406       .  A
C177        C178   1.399       .  A
C177        F184   1.358       .  S
C178        C179   1.412   1_554  A
C178        F183   1.358       .  S
C179        C180   1.412       .  A
C180        F181   1.358       .  S
C185        C186   1.411       .  A
C185        C190   1.399       .  A
C185        F192   1.358       .  S
C186        C187   1.412   1_556  A
C187        C188   1.399       .  A
C187        F194   1.358       .  S
C188        C189   1.401   1_554  A
C188        F193   1.358       .  S
C189        C190   1.402       .  A
C190        F191   1.358       .  S
C195        C196   1.401   1_554  A
C195        C200   1.397       .  A
C195        F202   1.358       .  S
C196        C197   1.401       .  A
C197        C198   1.397       .  A
C197        F204   1.358       .  S
C198        C199   1.411       .  A
C198        F203   1.358       .  S
C199        C200   1.412   1_556  A
C200        F201   1.358       .  S
C205        C206   1.412       .  A
C205        C210   1.399       .  A
C205        F212   1.358       .  S
C206        C207   1.411   1_556  A
C207        C208   1.399       .  A
C207        F214   1.358       .  S
C208        C209   1.402       .  A
C208        F213   1.358       .  S
C209        C210   1.402   1_554  A
C210        F211   1.358       .  S
N215        H247   1.039       .  S
N215        C219   1.353   1_556  A
N216        C651   1.350   1_554  A
N216        C224   1.350   1_554  A
N217        H248   1.038       .  S
N217        C221   1.351   1_556  A
N218        C653   1.351       .  A
N218        C226   1.351       .  A
C219        C227   1.386       .  A
C219        C235   1.412       .  A
C220        C236   1.417       .  A
C220        C228   1.388       .  A
C221        C229   1.387       .  A
C221        C238   1.412   1_554  A
C222        C237   1.412   1_554  A
C222        C230   1.386       .  A
C223        N644   1.350   1_456  A
C223        C235   1.410   1_556  A
C223        C231   1.386       .  A
C224        C238   1.411       .  A
C224        C232   1.386       .  A
C225        N646   1.351   1_455  A
C225        C233   1.387       .  A
C225        C236   1.414   1_556  A
C226        C234   1.385       .  A
C226        C237   1.410       .  A
C227        H239   1.082       .  S
C228        H240   1.082       .  S
C229        H241   1.082       .  S
C230        H242   1.082       .  S
C231        C660   1.373   1_455  A
C231        H243   1.082       .  S
C232        C659   1.373       .  A
C232        H244   1.082       .  S
C233        C662   1.373   1_455  A
C233        H245   1.082       .  S
C234        C661   1.373       .  A
C234        H246   1.082       .  S
C235        C423   1.483       .  S
C236        C390   1.492       .  S
C237        C403   1.483       .  S
C238        C410   1.480       .  S
N249        H281   1.039       .  S
N249        C253   1.353       .  A
N250        C685   1.350       .  A
N250        C258   1.350       .  A
N251        H282   1.040       .  S
N251        C255   1.352       .  A
N252        C687   1.350       .  A
N252        C260   1.351       .  A
C253        C261   1.387       .  A
C253        C269   1.413       .  A
C254        C270   1.414       .  A
C254        C262   1.387       .  A
C255        C263   1.388       .  A
C255        C272   1.416       .  A
C256        C271   1.411       .  A
C256        C264   1.385       .  A
C257        N678   1.350   1_455  A
C257        C269   1.409       .  A
C257        C265   1.385       .  A
C258        C272   1.414       .  A
C258        C266   1.387       .  A
C259        N680   1.350       .  A
C259        C267   1.387       .  A
C259        C270   1.412       .  A
C260        C268   1.385       .  A
C260        C271   1.410       .  A
C261        H273   1.082       .  S
C262        H274   1.082       .  S
C263        H275   1.082       .  S
C264        H276   1.082       .  S
C265        C694   1.374   1_455  A
C265        H277   1.082       .  S
C266        C693   1.374       .  A
C266        H278   1.082       .  S
C267        C696   1.374   1_455  A
C267        H279   1.082       .  S
C268        C695   1.374       .  A
C268        H280   1.082       .  S
C269        C380   1.484       .  S
C270        C350   1.482       .  S
C271        C360   1.484       .  S
C272        C370   1.491       .  S
O283        C299   1.275   1_554  A
O283       Zn289   2.026       .  S
C284        C340   1.488       .  S
C284        O300   1.275       .  A
C284        O297   1.273       .  A
O285        C298   1.275       .  A
O285       Cd292   2.064       .  S
O286        C304   1.274   1_554  A
O286       Cd295   2.067       .  S
O287        C301   1.275       .  A
O287       Cd291   2.069       .  S
O288        C299   1.274       .  A
O288       Cd291   2.066       .  S
Zn289       O300   2.027       .  S
Zn289       O302   2.020       .  S
Zn289       O294   1.950   1_554  S
O290        C301   1.274   1_554  A
O290       Cd295   2.061       .  S
Cd291       O293   2.066       .  S
Cd291       O294   1.997       .  S
Cd292       O296   2.072       .  S
Cd292       O305   2.076       .  S
Cd292       O294   1.998       .  S
O293        C303   1.274       .  A
O294       Cd295   1.992   1_556  S
Cd295       O297   2.053       .  S
O296        C303   1.275       .  A
C298        C393   1.489       .  S
C298        O302   1.275   1_556  A
C299        C420   1.486       .  S
C301        C413   1.482       .  S
C303        C330   1.485       .  S
C304        C400   1.486       .  S
C304        O305   1.275       .  A
O306        C322   1.275       .  A
O306       Zn312   2.022       .  S
C307        C343   1.488       .  S
C307        O323   1.275       .  A
C307        O320   1.274       .  A
O308        C321   1.274       .  A
O308       Cd315   2.070       .  S
O309        C327   1.274       .  A
O309       Cd318   2.063       .  S
O310        C324   1.275       .  A
O310       Cd314   2.074       .  S
O311        C322   1.274       .  A
O311       Cd314   2.060       .  S
Zn312       O323   2.024       .  S
Zn312       O325   2.023       .  S
Zn312       O317   1.949       .  S
O313        C324   1.275       .  A
O313       Cd318   2.074       .  S
Cd314       O316   2.066       .  S
Cd314       O317   1.996       .  S
Cd315       O319   2.073       .  S
Cd315       O328   2.077       .  S
Cd315       O317   2.000       .  S
O316        C326   1.274       .  A
O317       Cd318   1.994       .  S
Cd318       O320   2.058       .  S
O319        C326   1.276       .  A
C321        C383   1.487       .  S
C321        O325   1.275       .  A
C322        C353   1.484       .  S
C324        C363   1.488       .  S
C326        C333   1.484       .  S
C327        C373   1.490       .  S
C327        O328   1.276       .  A
C329        C330   1.408       .  A
C329        C334   1.399       .  A
C329        F336   1.358       .  S
C330        C331   1.409       .  A
C331        C332   1.398       .  A
C331        F338   1.358       .  S
C332        C333   1.408       .  A
C332        F337   1.358       .  S
C333        C334   1.409       .  A
C334        F335   1.358       .  S
C339        C340   1.410       .  A
C339        C344   1.401       .  A
C339        F346   1.358       .  S
C340        C341   1.410       .  A
C341        C342   1.395       .  A
C341        F348   1.358       .  S
C342        C343   1.410       .  A
C342        F347   1.358       .  S
C343        C344   1.410       .  A
C344        F345   1.358       .  S
C349        C350   1.401       .  A
C349        C354   1.397       .  A
C349        F356   1.358       .  S
C350        C351   1.403       .  A
C351        C352   1.398       .  A
C351        F358   1.358       .  S
C352        C353   1.411       .  A
C352        F357   1.358       .  S
C353        C354   1.411       .  A
C354        F355   1.358       .  S
C359        C360   1.402       .  A
C359        C364   1.399       .  A
C359        F366   1.358       .  S
C360        C361   1.402       .  A
C361        C362   1.400       .  A
C361        F368   1.358       .  S
C362        C363   1.412       .  A
C362        F367   1.358       .  S
C363        C364   1.412       .  A
C364        F365   1.358       .  S
C369        C370   1.405       .  A
C369        C374   1.398       .  A
C369        F376   1.358       .  S
C370        C371   1.405       .  A
C371        C372   1.398       .  A
C371        F378   1.358       .  S
C372        C373   1.412       .  A
C372        F377   1.358       .  S
C373        C374   1.413       .  A
C374        F375   1.358       .  S
C379        C380   1.402       .  A
C379        C384   1.400       .  A
C379        F386   1.358       .  S
C380        C381   1.402       .  A
C381        C382   1.399       .  A
C381        F388   1.358       .  S
C382        C383   1.411       .  A
C382        F387   1.358       .  S
C383        C384   1.412       .  A
C384        F385   1.358       .  S
C389        C390   1.405   1_556  A
C389        C394   1.397       .  A
C389        F396   1.358       .  S
C390        C391   1.406       .  A
C391        C392   1.399       .  A
C391        F398   1.358       .  S
C392        C393   1.412   1_554  A
C392        F397   1.358       .  S
C393        C394   1.412       .  A
C394        F395   1.358       .  S
C399        C400   1.411       .  A
C399        C404   1.399       .  A
C399        F406   1.358       .  S
C400        C401   1.412   1_556  A
C401        C402   1.399       .  A
C401        F408   1.358       .  S
C402        C403   1.401   1_554  A
C402        F407   1.358       .  S
C403        C404   1.402       .  A
C404        F405   1.358       .  S
C409        C410   1.401   1_554  A
C409        C414   1.397       .  A
C409        F416   1.358       .  S
C410        C411   1.401       .  A
C411        C412   1.397       .  A
C411        F418   1.358       .  S
C412        C413   1.411       .  A
C412        F417   1.358       .  S
C413        C414   1.412   1_556  A
C414        F415   1.358       .  S
C419        C420   1.412       .  A
C419        C424   1.399       .  A
C419        F426   1.358       .  S
C420        C421   1.411   1_556  A
C421        C422   1.399       .  A
C421        F428   1.358       .  S
C422        C423   1.402       .  A
C422        F427   1.358       .  S
C423        C424   1.402   1_554  A
C424        F425   1.358       .  S
N429        H461   1.039       .  S
N429        C648   1.353   1_556  A
N429        C433   1.353   1_566  A
N430        C438   1.350   1_554  A
N431        H462   1.038       .  S
N431        C650   1.352   1_556  A
N431        C435   1.351   1_566  A
N432        C440   1.351       .  A
C433        C441   1.386       .  A
C433        C449   1.412       .  A
C434        N643   1.353   1_554  A
C434        C450   1.417       .  A
C434        C442   1.388       .  A
C435        C443   1.387       .  A
C435        C452   1.412   1_554  A
C436        N645   1.352   1_554  A
C436        C451   1.412   1_554  A
C436        C444   1.386       .  A
C437        C449   1.410   1_556  A
C437        C445   1.386       .  A
C438        C452   1.411       .  A
C438        C446   1.386       .  A
C439        C447   1.387       .  A
C439        C450   1.414   1_556  A
C440        C448   1.385       .  A
C440        C451   1.410       .  A
C441        C656   1.376   1_545  A
C441        H453   1.082       .  S
C442        C655   1.376       .  A
C442        H454   1.082       .  S
C443        C658   1.375   1_545  A
C443        H455   1.082       .  S
C444        C657   1.375       .  A
C444        H456   1.082       .  S
C445        H457   1.082       .  S
C446        H458   1.082       .  S
C447        H459   1.082       .  S
C448        H460   1.082       .  S
C449        C637   1.483       .  S
C450        C604   1.492       .  S
C451        C617   1.483       .  S
C452        C624   1.480       .  S
N463        H495   1.039       .  S
N463        C682   1.352   1_545  A
N463        C467   1.353       .  A
N464        C472   1.350       .  A
N465        H496   1.040   1_545  S
N465        C684   1.352   1_545  A
N465        C469   1.352       .  A
N466        C474   1.351   1_455  A
C467        C475   1.387       .  A
C467        C483   1.413       .  A
C468        N677   1.352       .  A
C468        C484   1.414       .  A
C468        C476   1.387       .  A
C469        C477   1.388       .  A
C469        C486   1.416       .  A
C470        N679   1.352       .  A
C470        C485   1.411       .  A
C470        C478   1.385       .  A
C471        C483   1.409       .  A
C471        C479   1.385       .  A
C472        C486   1.414       .  A
C472        C480   1.387       .  A
C473        C481   1.387       .  A
C473        C484   1.412       .  A
C474        C482   1.385       .  A
C474        C485   1.410       .  A
C475        C690   1.376   1_545  A
C475        H487   1.082       .  S
C476        C689   1.376       .  A
C476        H488   1.082       .  S
C477        C692   1.376   1_545  A
C477        H489   1.082       .  S
C478        C691   1.376       .  A
C478        H490   1.082       .  S
C479        H491   1.082       .  S
C480        H492   1.082       .  S
C481        H493   1.082       .  S
C482        H494   1.082       .  S
C483        C594   1.484       .  S
C484        C564   1.482       .  S
C485        C574   1.484       .  S
C486        C584   1.491       .  S
O497        C513   1.275   1_554  A
O497       Zn503   2.026       .  S
C498        C554   1.488       .  S
C498        O514   1.275       .  A
C498        O511   1.273       .  A
O499        C512   1.275       .  A
O499       Cd506   2.064       .  S
O500        C518   1.274   1_554  A
O500       Cd509   2.067       .  S
O501        C515   1.275       .  A
O501       Cd505   2.069       .  S
O502        C513   1.274       .  A
O502       Cd505   2.066       .  S
Zn503       O514   2.027       .  S
Zn503       O516   2.020       .  S
Zn503       O508   1.950   1_554  S
O504        C515   1.274   1_554  A
O504       Cd509   2.061       .  S
Cd505       O507   2.066       .  S
Cd505       O508   1.997       .  S
Cd506       O510   2.072       .  S
Cd506       O519   2.076       .  S
Cd506       O508   1.998       .  S
O507        C517   1.274       .  A
O508       Cd509   1.992   1_556  S
Cd509       O511   2.053       .  S
O510        C517   1.275       .  A
C512        C607   1.489       .  S
C512        O516   1.275   1_556  A
C513        C634   1.486       .  S
C515        C627   1.482       .  S
C517        C544   1.485       .  S
C518        C614   1.486       .  S
C518        O519   1.275       .  A
O520        C536   1.275       .  A
O520       Zn526   2.022       .  S
C521        C557   1.488       .  S
C521        O537   1.275       .  A
C521        O534   1.274       .  A
O522        C535   1.274       .  A
O522       Cd529   2.070       .  S
O523        C541   1.274       .  A
O523       Cd532   2.063       .  S
O524        C538   1.275       .  A
O524       Cd528   2.074       .  S
O525        C536   1.274       .  A
O525       Cd528   2.060       .  S
Zn526       O537   2.024       .  S
Zn526       O539   2.023       .  S
Zn526       O531   1.949       .  S
O527        C538   1.275       .  A
O527       Cd532   2.074       .  S
Cd528       O530   2.066       .  S
Cd528       O531   1.996       .  S
Cd529       O533   2.073       .  S
Cd529       O542   2.077       .  S
Cd529       O531   2.000       .  S
O530        C540   1.274       .  A
O531       Cd532   1.994       .  S
Cd532       O534   2.058       .  S
O533        C540   1.276       .  A
C535        C597   1.487       .  S
C535        O539   1.275       .  A
C536        C567   1.484       .  S
C538        C577   1.488       .  S
C540        C547   1.484       .  S
C541        C587   1.490       .  S
C541        O542   1.276       .  A
C543        C544   1.408       .  A
C543        C548   1.399       .  A
C543        F550   1.358       .  S
C544        C545   1.409       .  A
C545        C546   1.398       .  A
C545        F552   1.358       .  S
C546        C547   1.408       .  A
C546        F551   1.358       .  S
C547        C548   1.409       .  A
C548        F549   1.358       .  S
C553        C554   1.410       .  A
C553        C558   1.401       .  A
C553        F560   1.358       .  S
C554        C555   1.410       .  A
C555        C556   1.395       .  A
C555        F562   1.358       .  S
C556        C557   1.410       .  A
C556        F561   1.358       .  S
C557        C558   1.410       .  A
C558        F559   1.358       .  S
C563        C564   1.401       .  A
C563        C568   1.397       .  A
C563        F570   1.358       .  S
C564        C565   1.403       .  A
C565        C566   1.398       .  A
C565        F572   1.358       .  S
C566        C567   1.411       .  A
C566        F571   1.358       .  S
C567        C568   1.411       .  A
C568        F569   1.358       .  S
C573        C574   1.402       .  A
C573        C578   1.399       .  A
C573        F580   1.358       .  S
C574        C575   1.402       .  A
C575        C576   1.400       .  A
C575        F582   1.358       .  S
C576        C577   1.412       .  A
C576        F581   1.358       .  S
C577        C578   1.412       .  A
C578        F579   1.358       .  S
C583        C584   1.405       .  A
C583        C588   1.398       .  A
C583        F590   1.358       .  S
C584        C585   1.405       .  A
C585        C586   1.398       .  A
C585        F592   1.358       .  S
C586        C587   1.412       .  A
C586        F591   1.358       .  S
C587        C588   1.413       .  A
C588        F589   1.358       .  S
C593        C594   1.402       .  A
C593        C598   1.400       .  A
C593        F600   1.358       .  S
C594        C595   1.402       .  A
C595        C596   1.399       .  A
C595        F602   1.358       .  S
C596        C597   1.411       .  A
C596        F601   1.358       .  S
C597        C598   1.412       .  A
C598        F599   1.358       .  S
C603        C604   1.405   1_556  A
C603        C608   1.397       .  A
C603        F610   1.358       .  S
C604        C605   1.406       .  A
C605        C606   1.399       .  A
C605        F612   1.358       .  S
C606        C607   1.412   1_554  A
C606        F611   1.358       .  S
C607        C608   1.412       .  A
C608        F609   1.358       .  S
C613        C614   1.411       .  A
C613        C618   1.399       .  A
C613        F620   1.358       .  S
C614        C615   1.412   1_556  A
C615        C616   1.399       .  A
C615        F622   1.358       .  S
C616        C617   1.401   1_554  A
C616        F621   1.358       .  S
C617        C618   1.402       .  A
C618        F619   1.358       .  S
C623        C624   1.401   1_554  A
C623        C628   1.397       .  A
C623        F630   1.358       .  S
C624        C625   1.401       .  A
C625        C626   1.397       .  A
C625        F632   1.358       .  S
C626        C627   1.411       .  A
C626        F631   1.358       .  S
C627        C628   1.412   1_556  A
C628        F629   1.358       .  S
C633        C634   1.412       .  A
C633        C638   1.399       .  A
C633        F640   1.358       .  S
C634        C635   1.411   1_556  A
C635        C636   1.399       .  A
C635        F642   1.358       .  S
C636        C637   1.402       .  A
C636        F641   1.358       .  S
C637        C638   1.402   1_554  A
C638        F639   1.358       .  S
N643        H675   1.039       .  S
N643        C647   1.353   1_556  A
N644        C652   1.350   1_554  A
N645        H676   1.038       .  S
N645        C649   1.351   1_556  A
N646        C654   1.351       .  A
C647        C655   1.386       .  A
C647        C663   1.412       .  A
C648        C664   1.417       .  A
C648        C656   1.388       .  A
C649        C657   1.387       .  A
C649        C666   1.412   1_554  A
C650        C665   1.412   1_554  A
C650        C658   1.386       .  A
C651        C663   1.410   1_556  A
C651        C659   1.386       .  A
C652        C666   1.411       .  A
C652        C660   1.386       .  A
C653        C661   1.387       .  A
C653        C664   1.414   1_556  A
C654        C662   1.385       .  A
C654        C665   1.410       .  A
C655        H667   1.082       .  S
C656        H668   1.082       .  S
C657        H669   1.082       .  S
C658        H670   1.082       .  S
C659        H671   1.082       .  S
C660        H672   1.082       .  S
C661        H673   1.082       .  S
C662        H674   1.082       .  S
C663        C851   1.483       .  S
C664        C818   1.492       .  S
C665        C831   1.483       .  S
C666        C838   1.480       .  S
N677        H709   1.039       .  S
N677        C681   1.353       .  A
N678        C686   1.350       .  A
N679        H710   1.040       .  S
N679        C683   1.352       .  A
N680        C688   1.351   1_455  A
C681        C689   1.387       .  A
C681        C697   1.413       .  A
C682        C698   1.414       .  A
C682        C690   1.387       .  A
C683        C691   1.388       .  A
C683        C700   1.416       .  A
C684        C699   1.411       .  A
C684        C692   1.385       .  A
C685        C697   1.409       .  A
C685        C693   1.385       .  A
C686        C700   1.414       .  A
C686        C694   1.387       .  A
C687        C695   1.387       .  A
C687        C698   1.412       .  A
C688        C696   1.385       .  A
C688        C699   1.410       .  A
C689        H701   1.082       .  S
C690        H702   1.082       .  S
C691        H703   1.082       .  S
C692        H704   1.082       .  S
C693        H705   1.082       .  S
C694        H706   1.082       .  S
C695        H707   1.082       .  S
C696        H708   1.082       .  S
C697        C808   1.484       .  S
C698        C778   1.482       .  S
C699        C788   1.484       .  S
C700        C798   1.491       .  S
O711        C727   1.275   1_554  A
O711       Zn717   2.026       .  S
C712        C768   1.488       .  S
C712        O728   1.275       .  A
C712        O725   1.273       .  A
O713        C726   1.275       .  A
O713       Cd720   2.064       .  S
O714        C732   1.274   1_554  A
O714       Cd723   2.067       .  S
O715        C729   1.275       .  A
O715       Cd719   2.069       .  S
O716        C727   1.274       .  A
O716       Cd719   2.066       .  S
Zn717       O728   2.027       .  S
Zn717       O730   2.020       .  S
Zn717       O722   1.950   1_554  S
O718        C729   1.274   1_554  A
O718       Cd723   2.061       .  S
Cd719       O721   2.066       .  S
Cd719       O722   1.997       .  S
Cd720       O724   2.072       .  S
Cd720       O733   2.076       .  S
Cd720       O722   1.998       .  S
O721        C731   1.274       .  A
O722       Cd723   1.992   1_556  S
Cd723       O725   2.053       .  S
O724        C731   1.275       .  A
C726        C821   1.489       .  S
C726        O730   1.275   1_556  A
C727        C848   1.486       .  S
C729        C841   1.482       .  S
C731        C758   1.485       .  S
C732        C828   1.486       .  S
C732        O733   1.275       .  A
O734        C750   1.275       .  A
O734       Zn740   2.022       .  S
C735        C771   1.488       .  S
C735        O751   1.275       .  A
C735        O748   1.274       .  A
O736        C749   1.274       .  A
O736       Cd743   2.070       .  S
O737        C755   1.274       .  A
O737       Cd746   2.063       .  S
O738        C752   1.275       .  A
O738       Cd742   2.074       .  S
O739        C750   1.274       .  A
O739       Cd742   2.060       .  S
Zn740       O751   2.024       .  S
Zn740       O753   2.023       .  S
Zn740       O745   1.949       .  S
O741        C752   1.275       .  A
O741       Cd746   2.074       .  S
Cd742       O744   2.066       .  S
Cd742       O745   1.996       .  S
Cd743       O747   2.073       .  S
Cd743       O756   2.077       .  S
Cd743       O745   2.000       .  S
O744        C754   1.274       .  A
O745       Cd746   1.994       .  S
Cd746       O748   2.058       .  S
O747        C754   1.276       .  A
C749        C811   1.487       .  S
C749        O753   1.275       .  A
C750        C781   1.484       .  S
C752        C791   1.488       .  S
C754        C761   1.484       .  S
C755        C801   1.490       .  S
C755        O756   1.276       .  A
C757        C758   1.408       .  A
C757        C762   1.399       .  A
C757        F764   1.358       .  S
C758        C759   1.409       .  A
C759        C760   1.398       .  A
C759        F766   1.358       .  S
C760        C761   1.408       .  A
C760        F765   1.358       .  S
C761        C762   1.409       .  A
C762        F763   1.358       .  S
C767        C768   1.410       .  A
C767        C772   1.401       .  A
C767        F774   1.358       .  S
C768        C769   1.410       .  A
C769        C770   1.395       .  A
C769        F776   1.358       .  S
C770        C771   1.410       .  A
C770        F775   1.358       .  S
C771        C772   1.410       .  A
C772        F773   1.358       .  S
C777        C778   1.401       .  A
C777        C782   1.397       .  A
C777        F784   1.358       .  S
C778        C779   1.403       .  A
C779        C780   1.398       .  A
C779        F786   1.358       .  S
C780        C781   1.411       .  A
C780        F785   1.358       .  S
C781        C782   1.411       .  A
C782        F783   1.358       .  S
C787        C788   1.402       .  A
C787        C792   1.399       .  A
C787        F794   1.358       .  S
C788        C789   1.402       .  A
C789        C790   1.400       .  A
C789        F796   1.358       .  S
C790        C791   1.412       .  A
C790        F795   1.358       .  S
C791        C792   1.412       .  A
C792        F793   1.358       .  S
C797        C798   1.405       .  A
C797        C802   1.398       .  A
C797        F804   1.358       .  S
C798        C799   1.405       .  A
C799        C800   1.398       .  A
C799        F806   1.358       .  S
C800        C801   1.412       .  A
C800        F805   1.358       .  S
C801        C802   1.413       .  A
C802        F803   1.358       .  S
C807        C808   1.402       .  A
C807        C812   1.400       .  A
C807        F814   1.358       .  S
C808        C809   1.402       .  A
C809        C810   1.399       .  A
C809        F816   1.358       .  S
C810        C811   1.411       .  A
C810        F815   1.358       .  S
C811        C812   1.412       .  A
C812        F813   1.358       .  S
C817        C818   1.405   1_556  A
C817        C822   1.397       .  A
C817        F824   1.358       .  S
C818        C819   1.406       .  A
C819        C820   1.399       .  A
C819        F826   1.358       .  S
C820        C821   1.412   1_554  A
C820        F825   1.358       .  S
C821        C822   1.412       .  A
C822        F823   1.358       .  S
C827        C828   1.411       .  A
C827        C832   1.399       .  A
C827        F834   1.358       .  S
C828        C829   1.412   1_556  A
C829        C830   1.399       .  A
C829        F836   1.358       .  S
C830        C831   1.401   1_554  A
C830        F835   1.358       .  S
C831        C832   1.402       .  A
C832        F833   1.358       .  S
C837        C838   1.401   1_554  A
C837        C842   1.397       .  A
C837        F844   1.358       .  S
C838        C839   1.401       .  A
C839        C840   1.397       .  A
C839        F846   1.358       .  S
C840        C841   1.411       .  A
C840        F845   1.358       .  S
C841        C842   1.412   1_556  A
C842        F843   1.358       .  S
C847        C848   1.412       .  A
C847        C852   1.399       .  A
C847        F854   1.358       .  S
C848        C849   1.411   1_556  A
C849        C850   1.399       .  A
C849        F856   1.358       .  S
C850        C851   1.402       .  A
C850        F855   1.358       .  S
C851        C852   1.402   1_554  A
C852        F853   1.358       .  S
