geometry optimzed in LAMMPS
_audit_creation_date              2020-11-30 
_audit_creation_method            'lammps2cif' 
_symmetry_space_group_name_H-M    'P1' 
_symmetry_Int_Tables_number       1 
_symmetry_cell_setting            triclinic 
loop_ 
_symmetry_equiv_pos_as_xyz 
  x,y,z 
_cell_length_a                    47.54954089 
_cell_length_b                    29.791382237040576 
_cell_length_c                    37.85246817660438 
_cell_angle_alpha                 89.2965894723679 
_cell_angle_beta                  90.44047206295421 
_cell_angle_gamma                 88.88352066291478 
loop_ 
_atom_site_label 
_atom_site_type_symbol 
_atom_site_fract_x 
_atom_site_fract_y 
_atom_site_fract_z 
_atom_site_charge 
O1          O  0.61545996  0.30748947  0.37243449    -0.77900
C2          C  0.54604802  0.39008327  0.33553941     0.83100
O3          O  0.62847146  0.33614919  0.24392913    -0.79000
O4          O  0.60115586  0.49059473  0.28136960    -0.80500
O5          O  0.65018521  0.45201352  0.38432704    -0.80300
O6          O  0.65271278  0.34579992  0.38902116    -0.78900
Zn7        Zn  0.60228212  0.34006693  0.32772381     1.55700
O8          O  0.60962167  0.48581809  0.36926657    -0.80300
Cd9        Cd  0.65372777  0.39726430  0.35357005     1.59700
Cd10       Cd  0.64024051  0.39439337  0.27025410     1.59600
O11         O  0.69246830  0.39633817  0.33122765    -0.80300
O12         O  0.62287692  0.39462082  0.31858550    -1.90800
Cd13       Cd  0.59774363  0.44877525  0.32519491     1.59900
O14         O  0.68430699  0.39325650  0.27340583    -0.80300
O15         O  0.55622995  0.42918716  0.33213205    -0.78900
C16         C  0.61615172  0.30117363  0.25539379     0.83600
C17         C  0.63583550  0.31387765  0.39371811     0.83300
O18         O  0.56123458  0.35454103  0.33411141    -0.77900
C19         C  0.63145040  0.48220300  0.38898043     0.84100
O20         O  0.60624957  0.29842627  0.28648952    -0.78000
C21         C  0.70127633  0.39439888  0.29969207     0.84200
C22         C  0.61397596  0.48804721  0.25196876     0.84500
O23         O  0.62858764  0.45358676  0.24310588    -0.80400
C24         C  0.60275960  0.18811660  0.19689436     0.87100
C25         C  0.57110327  0.18116613  0.19228783    -0.53200
C26         C  0.56478395  0.14298079  0.17461991     0.10000
C27         C  0.59062890  0.11557830  0.16258761     0.20900
C28         C  0.61381281  0.14468045  0.21499313    -0.53900
C29         C  0.60723948  0.10668445  0.19702276     0.10100
C30         C  0.61476660  0.18712676  0.15960024    -0.53400
C31         C  0.60850168  0.14920313  0.14162657     0.10700
H32         H  0.55513868  0.20326744  0.20347123     0.15200
H33         H  0.58542511  0.08460454  0.14803442     0.00900
H34         H  0.62454187  0.14391562  0.24044445     0.15500
H35         H  0.62770907  0.21349885  0.14868468     0.15300
C36         C  0.70277582  0.13819117  0.02947882     0.87100
C37         C  0.69223822  0.09940240  0.50563767    -0.53200
C38         C  0.66424565  0.10268427  0.49736023     0.10000
C39         C  0.64906298  0.14308343  0.51422869     0.20900
C40         C  0.69399299  0.18033898  0.51029624    -0.53900
C41         C  0.66592794  0.18421298  0.50195914     0.10100
C42         C  0.68348747  0.13628878  0.06202979    -0.53400
C43         C  0.65553089  0.13789666  0.05384409     0.10700
H44         H  0.70604013  0.07335784  0.49520168     0.15200
H45         H  0.62618622  0.14495227  0.50843358     0.00900
H46         H  0.70944627  0.20464652  0.50227119     0.15500
H47         H  0.69050189  0.13407689  0.08926089     0.15300
O48         O  0.91573384  0.22712018  0.11846942    -0.77900
C49         C  0.97976499  0.12622842  0.08710603     0.83100
O50         O  0.89780548  0.19747998  0.49328493    -0.79000
O51         O  0.91772677  0.04057748  0.03311973    -0.80500
O52         O  0.87661949  0.09217670  0.14147375    -0.80300
O53         O  0.87303754  0.20081645  0.12887072    -0.78900
Zn54       Zn  0.92837403  0.18934613  0.07634841     1.55700
O55         O  0.91001765  0.04658199  0.12099892    -0.80300
Cd56       Cd  0.87282388  0.14154079  0.10330354     1.59700
Cd57       Cd  0.88551157  0.14251111  0.01957053     1.59600
O58         O  0.83417287  0.13662188  0.08035035    -0.80300
O59         O  0.90320073  0.13941288  0.06816429    -1.90800
Cd60       Cd  0.92339447  0.08076005  0.07624901     1.59900
O61         O  0.84139596  0.14353354  0.02256822    -0.80300
O62         O  0.96577729  0.09060890  0.08351119    -0.78900
C63         C  0.91444098  0.23277982  0.00346543     0.83600
C64         C  0.89212904  0.22919740  0.13423586     0.83300
O65         O  0.96835334  0.16535912  0.08517984    -0.77900
C66         C  0.89178045  0.05665563  0.14422052     0.84100
O67         O  0.92714895  0.23145378  0.03331960    -0.78000
C68         C  0.82486771  0.13941769  0.04883010     0.84200
C69         C  0.90740927  0.04672510  0.00227581     0.84500
O70         O  0.89693596  0.07989611  0.49225202    -0.80400
C71         C  0.91965325  0.43011456  0.44550836     0.87100
C72         C  0.90694804  0.42553330  0.40858339    -0.53200
C73         C  0.91567541  0.38761861  0.39168145     0.10000
C74         C  0.93633525  0.35746849  0.41348869     0.20900
C75         C  0.91222576  0.38662813  0.46536453    -0.53900
C76         C  0.92105987  0.34844744  0.44865459     0.10100
C77         C  0.95143753  0.42704114  0.44034593    -0.53400
C78         C  0.96021159  0.38911001  0.42378838     0.10700
H79         H  0.89234265  0.45004370  0.39681368     0.15200
H80         H  0.94357524  0.32657659  0.39983456     0.00900
H81         H  0.90171179  0.38613161  0.49074230     0.15500
H82         H  0.96588213  0.45215491  0.44980586     0.15300
C83         C  0.82288132  0.38878765  0.27918039     0.87100
C84         C  0.83324422  0.43184204  0.26131322    -0.53200
C85         C  0.86103103  0.43057142  0.25212959     0.10000
C86         C  0.87619549  0.38606704  0.26246901     0.20900
C87         C  0.83093340  0.35115751  0.25378630    -0.53900
C88         C  0.85856501  0.35027940  0.24396818     0.10100
C89         C  0.84281823  0.38122832  0.31096872    -0.53400
C90         C  0.87053449  0.37970300  0.30223187     0.10700
H91         H  0.81905993  0.45956891  0.25423943     0.15200
H92         H  0.89888361  0.38519115  0.25588873     0.00900
H93         H  0.81552510  0.32818475  0.24349475     0.15500
H94         H  0.83637411  0.37787778  0.33821401     0.15300
O95         O  0.46727602  0.14945586  0.18027159    -0.77900
C96         C  0.39111800  0.19870036  0.12465316     0.83100
O97         O  0.39923848  0.16801888  0.27024236    -0.79000
O98         O  0.33554227  0.10749228  0.18188686    -0.80500
O99         O  0.41751281  0.02057058  0.14328912    -0.80300
O100        O  0.47145211  0.07468711  0.18194745    -0.78900
Zn101      Zn  0.42649843  0.16504686  0.18664450     1.55700
O102        O  0.37927950  0.05932482  0.12581094    -0.80300
Cd103      Cd  0.42964181  0.05608214  0.18810220     1.59700
Cd104      Cd  0.38738309  0.11024196  0.24332404     1.59600
O105        O  0.42595365  0.01342841  0.23159905    -0.80300
O106        O  0.40508571  0.11094977  0.19510457    -1.90800
Cd107      Cd  0.37438682  0.11091194  0.15980243     1.59900
O108        O  0.39899921  0.05060490  0.27024944    -0.80300
O109        O  0.37363329  0.16757083  0.12926535    -0.78900
C110        C  0.41241726  0.20253103  0.25949267     0.83600
C111        C  0.48208133  0.11353034  0.17895412     0.83300
O112        O  0.41347076  0.20100856  0.14320920    -0.77900
C113        C  0.39686812  0.02715737  0.12197574     0.84100
O114        O  0.42299816  0.20523648  0.22876342    -0.78000
C115        C  0.41339158  0.01596573  0.26119659     0.84200
C116        C  0.32643311  0.10977441  0.21327819     0.84500
O117        O  0.34321256  0.11178942  0.23973153    -0.80400
C118        C  0.42560117  0.31526405  0.31845715     0.87100
C119        C  0.41298186  0.31644131  0.35540073    -0.53200
C120        C  0.41906047  0.35427306  0.37358002     0.10000
C121        C  0.43743280  0.38779039  0.35297196     0.20900
C122        C  0.41502592  0.35877265  0.29999428    -0.53900
C123        C  0.42142806  0.39683573  0.31800531     0.10100
C124        C  0.45718964  0.32187287  0.32387511    -0.53400
C125        C  0.46341225  0.36006016  0.34157667     0.10700
H126        H  0.39984954  0.29010804  0.36600183     0.15200
H127        H  0.44253660  0.41872957  0.36761698     0.00900
H128        H  0.40469621  0.35950467  0.27428713     0.15500
H129        H  0.47322956  0.29967118  0.31296635     0.15300
C130        C  0.32280959  0.37148834  0.48275643     0.87100
C131        C  0.33091160  0.33024920  0.00475086    -0.53200
C132        C  0.35847385  0.32658498  0.01518970     0.10000
C133        C  0.37652267  0.36532225  0.00111482     0.20900
C134        C  0.33406394  0.41151924  0.00657258    -0.53900
C135        C  0.36190439  0.40748578  0.01568357     0.10100
C136        C  0.34286931  0.36871197  0.45109126    -0.53400
C137        C  0.37058343  0.36536681  0.46047734     0.10700
H138        H  0.31518622  0.30595341  0.01200838     0.15200
H139        H  0.39919073  0.36260725  0.00812008     0.00900
H140        H  0.32049807  0.43862653  0.01578824     0.15500
H141        H  0.33647169  0.37019941  0.42358884     0.15300
O142        O  0.11149808  0.46281037  0.39167721    -0.77900
C143        C  0.04494400  0.37421293  0.42550083     0.83100
O144        O  0.12632788  0.42988721  0.02009622    -0.79000
O145        O  0.10506473  0.27605469  0.47564430    -0.80500
O146        O  0.15261521  0.31291483  0.37872554    -0.80300
O147        O  0.14747937  0.42149467  0.37198757    -0.78900
Zn148      Zn  0.09890347  0.42790644  0.43516250     1.55700
O149        O  0.11088092  0.28326380  0.38849060    -0.80300
Cd150      Cd  0.15250642  0.37057009  0.40737967     1.59700
Cd151      Cd  0.14008679  0.37334144  0.49065270     1.59600
O152        O  0.19160654  0.37479520  0.42948880    -0.80300
O153        O  0.12206685  0.37377810  0.44232984    -1.90800
Cd154      Cd  0.09925398  0.31912299  0.43335093     1.59900
O155        O  0.18414545  0.37562995  0.48736902    -0.80300
O156        O  0.05727775  0.33603983  0.42788340    -0.78900
C157        C  0.11234964  0.46483180  0.00977124     0.83600
C158        C  0.13081410  0.45520145  0.36918849     0.83300
O159        O  0.05812587  0.41097012  0.42763653    -0.77900
C160        C  0.13422560  0.28371014  0.37226761     0.84100
O161        O  0.10140101  0.46818725  0.47819979    -0.78000
C162        C  0.20082213  0.37584172  0.46104764     0.84200
C163        C  0.11754667  0.27795142  0.00577430     0.84500
O164        O  0.13079450  0.31231452  0.01629633    -0.80400
C165        C  0.10496714  0.16392631  0.06380273     0.87100
C166        C  0.11845433  0.15977690  0.10035499    -0.53200
C167        C  0.10995323  0.12339162  0.11927447     0.10000
C168        C  0.08857890  0.09388931  0.09947797     0.20900
C169        C  0.11169538  0.11926155  0.04554548    -0.53900
C170        C  0.10306386  0.08234214  0.06408562     0.10100
C171        C  0.07335118  0.16366294  0.07013302    -0.53400
C172        C  0.06462497  0.12716801  0.08857489     0.10700
H173        H  0.13337337  0.18370421  0.11053549     0.15200
H174        H  0.08147191  0.06415375  0.11472519     0.00900
H175        H  0.12171068  0.11710232  0.01990551     0.15500
H176        H  0.05892479  0.18968874  0.06013620     0.15300
C177        C  0.20441590  0.11782548  0.23192794     0.87100
C178        C  0.19558153  0.15981559  0.25227889    -0.53200
C179        C  0.16797037  0.16129920  0.26229527     0.10000
C180        C  0.15099467  0.12151045  0.24831580     0.20900
C181        C  0.19468250  0.07832508  0.25484499    -0.53900
C182        C  0.16684363  0.08029012  0.26351691     0.10100
C183        C  0.18444580  0.11778082  0.19970569    -0.53400
C184        C  0.15663876  0.11932111  0.20830703     0.10700
H185        H  0.21067747  0.18479123  0.26006607     0.15200
H186        H  0.12831436  0.12256830  0.25502194     0.00900
H187        H  0.20895513  0.05192229  0.26446521     0.15500
H188        H  0.19097601  0.11543295  0.17245112     0.15300
C189        C  0.12113980  0.11545022  0.15447018    -0.12700
C190        C  0.13513095  0.11585964  0.18126853    -0.14300
C191        C  0.12126499  0.23416469  0.32122235    -0.12800
C192        C  0.14116627  0.24959867  0.34566156     0.09400
C193        C  0.16910489  0.23435282  0.34342767    -0.12800
C194        C  0.17737092  0.20537646  0.31683842    -0.12800
C195        C  0.15808519  0.19155825  0.29096095     0.09400
C196        C  0.12972197  0.20542102  0.29388343    -0.12800
H197        H  0.09953874  0.24558023  0.32250272     0.13400
H198        H  0.18472576  0.24501616  0.36239218     0.13400
H199        H  0.19904856  0.19367811  0.31690480     0.13400
H200        H  0.11426795  0.19497506  0.27468754     0.13400
C201        C  0.15106345  0.47104353  0.31038995    -0.12800
C202        C  0.13509498  0.48605639  0.33916892     0.09400
C203        C  0.12731089  0.03080485  0.34043678    -0.12800
C204        C  0.13577858  0.06131537  0.31439556    -0.12800
C205        C  0.15419249  0.04733506  0.28764569     0.09400
C206        C  0.16249064  0.00210259  0.28585096    -0.12800
H207        H  0.15787593  0.43624506  0.30854566     0.13400
H208        H  0.11427189  0.04261157  0.36187323     0.13400
H209        H  0.12923212  0.09621078  0.31633461     0.13400
H210        H  0.17618378  0.99039930  0.26501479     0.13400
C211        C  0.11649658  0.23875961  0.02798898    -0.12700
C212        C  0.11317484  0.20428938  0.04425698    -0.14300
C213        C  0.10573012  0.03735879  0.04954959    -0.12700
C214        C  0.10841223  0.00255482  0.03334274    -0.14300
C215        C  0.27338645  0.37649648  0.00698305    -0.12800
C216        C  0.29110104  0.37475247  0.47588955     0.09400
C217        C  0.27904832  0.37239100  0.44192849    -0.12800
C218        C  0.24985870  0.37331238  0.43739486    -0.12800
C219        C  0.23176203  0.37654701  0.46655220     0.09400
C220        C  0.24412905  0.37713573  0.00263701    -0.12800
H221        H  0.28204398  0.37467505  0.03353106     0.13400
H222        H  0.29167951  0.36902816  0.41857374     0.13400
H223        H  0.24147232  0.37087618  0.41082094     0.13400
H224        H  0.23093962  0.37578903  0.02580605     0.13400
C225        C  0.40670876  0.36218907  0.40779273    -0.12700
C226        C  0.39227595  0.36446964  0.43388655    -0.14300
C227        C  0.27746764  0.11140532  0.18857020    -0.12800
C228        C  0.29549262  0.11096939  0.21825664     0.09400
C229        C  0.28357250  0.11283955  0.25198398    -0.12800
C230        C  0.25432203  0.11510498  0.25579569    -0.12800
C231        C  0.23616970  0.11556528  0.22606132     0.09400
C232        C  0.24829724  0.11373527  0.19234501    -0.12800
H233        H  0.28589718  0.11024098  0.16209340     0.13400
H234        H  0.29680111  0.11270873  0.27540132     0.13400
H235        H  0.24572238  0.11654154  0.28218752     0.13400
H236        H  0.23574050  0.11416791  0.16853734     0.13400
C237        C  0.40433744  0.24987418  0.07429894    -0.12800
C238        C  0.38418426  0.23312994  0.09768884     0.09400
C239        C  0.35617195  0.24776405  0.09430908    -0.12800
C240        C  0.34818230  0.27824247  0.06792785    -0.12800
C241        C  0.36783992  0.29399699  0.04329072     0.09400
C242        C  0.39616111  0.27992218  0.04704255    -0.12800
H243        H  0.42609801  0.23869075  0.07644320     0.13400
H244        H  0.34036180  0.23581627  0.11243286     0.13400
H245        H  0.32647998  0.28975638  0.06742040     0.13400
H246        H  0.41188003  0.29143725  0.02870813     0.13400
C247        C  0.39361530  0.42328058  0.06715362    -0.12800
C248        C  0.37549155  0.43902365  0.03998622     0.09400
C249        C  0.36819224  0.48474282  0.03808545    -0.12800
C250        C  0.37539802  0.01262844  0.06344787    -0.12800
C251        C  0.39218756  0.99707249  0.09193426     0.09400
C252        C  0.40254779  0.45245332  0.09356873    -0.12800
H253        H  0.39945668  0.38802647  0.06919739     0.13400
H254        H  0.35479988  0.49787556  0.01695316     0.13400
H255        H  0.36812335  0.04728921  0.06189350     0.13400
H256        H  0.41517848  0.43926081  0.11539313     0.13400
C257        C  0.41738900  0.44135516  0.30259940    -0.12700
C258        C  0.41538851  0.47677061  0.28661081    -0.14300
C259        C  0.41548152  0.24039083  0.28235194    -0.12700
C260        C  0.41930021  0.27404005  0.29909444    -0.14300
C261        C  0.01500038  0.37584224  0.42093697    -0.12700
C262        C  0.98973755  0.37932806  0.41985854    -0.14300
C263        C  0.90521977  0.37791052  0.35673266    -0.12700
C264        C  0.89189674  0.37618607  0.32951245    -0.14300
C265        C  0.89909347  0.98243650  0.17540399    -0.12800
C266        C  0.88739148  0.02610992  0.17474012     0.09400
C267        C  0.86995226  0.03960659  0.20264085    -0.12800
C268        C  0.86309735  0.50978848  0.22918607    -0.12800
C269        C  0.87318403  0.46516762  0.22844613     0.08600
C270        C  0.89236093  0.45268074  0.20206656    -0.12800
H271        H  0.91273804  0.97111953  0.15439987     0.13400
H272        H  0.86099577  0.07328915  0.20328521     0.13400
H273        H  0.84882993  0.52079853  0.24962545     0.13400
H274        H  0.90035352  0.41852479  0.20043709     0.13400
C275        C  0.85819230  0.28235057  0.16039349    -0.12800
C276        C  0.88573467  0.26496511  0.15946923     0.09400
C277        C  0.90533663  0.27835173  0.18498036    -0.12800
C278        C  0.89682718  0.30676498  0.21240290    -0.12800
C279        C  0.86873308  0.32225314  0.21428278     0.09400
C280        C  0.84989128  0.31103567  0.18712564    -0.12800
H281        H  0.84282696  0.27299391  0.14064737     0.13400
H282        H  0.92669048  0.26504567  0.18474855     0.13400
H283        H  0.91190442  0.31511568  0.23272225     0.13400
H284        H  0.82848774  0.32404497  0.18650588     0.13400
C285        C  0.91133870  0.47165299  0.46349073    -0.12700
C286        C  0.91011761  0.00546890  0.47920611    -0.14300
C287        C  0.91623281  0.26879621  0.48065206    -0.12700
C288        C  0.91831674  0.30409596  0.46461426    -0.14300
C289        C  0.00962260  0.12198269  0.09262509    -0.12700
C290        C  0.03498354  0.12080807  0.09378362    -0.14300
C291        C  0.74710516  0.13585709  0.06910007    -0.12800
C292        C  0.73461250  0.13705542  0.03530317     0.09400
C293        C  0.75253239  0.13571924  0.50557047    -0.12800
C294        C  0.78173973  0.13900487  0.00965922    -0.12800
C295        C  0.79396372  0.13814264  0.04350472     0.09400
C296        C  0.77625907  0.13636923  0.07306314    -0.12800
H297        H  0.73489287  0.13495638  0.09291052     0.13400
H298        H  0.74363089  0.13825186  0.47917591     0.13400
H299        H  0.79483741  0.13759475  0.48623812     0.13400
H300        H  0.78491145  0.13571999  0.09961884     0.13400
C301        C  0.53634999  0.12725369  0.17255057    -0.12700
C302        C  0.51184353  0.11788100  0.17438881    -0.14300
C303        C  0.63452561  0.13795431  0.08112156    -0.12700
C304        C  0.62047272  0.14080488  0.10741063    -0.14300
C305        C  0.75030832  0.38924527  0.32363150    -0.12800
C306        C  0.73208830  0.39327520  0.29426894     0.09400
C307        C  0.74368592  0.39641578  0.26041707    -0.12800
C308        C  0.77288236  0.39546584  0.25615931    -0.12800
C309        C  0.79123882  0.39078195  0.28553434     0.09400
C310        C  0.77940740  0.38796514  0.31939837    -0.12800
H311        H  0.74208883  0.38684151  0.35017841     0.13400
H312        H  0.73025143  0.39978617  0.23726863     0.13400
H313        H  0.78126985  0.39804588  0.22969804     0.13400
H314        H  0.79210518  0.38489978  0.34300690     0.13400
C315        C  0.65148576  0.49693939  0.44811455    -0.12800
C316        C  0.63576226  0.51263718  0.41875194     0.09400
C317        C  0.62542285  0.05724590  0.41805944    -0.12800
C318        C  0.63377643  0.08654537  0.44464868    -0.12800
C319        C  0.65100921  0.07105694  0.47275274     0.09400
C320        C  0.65834463  0.02535977  0.47501830    -0.12800
H321        H  0.65853228  0.46218411  0.45003196     0.13400
H322        H  0.61336121  0.07027636  0.39567939     0.13400
H323        H  0.62830236  0.12161097  0.44185292     0.13400
H324        H  0.67350301  0.01122729  0.99743566     0.13400
C325        C  0.62353715  0.24675207  0.43082516    -0.12800
C326        C  0.64059823  0.28382647  0.42456352     0.09400
C327        C  0.66293358  0.29190531  0.44797199    -0.12800
C328        C  0.66966605  0.26141877  0.47499446    -0.12800
C329        C  0.65452251  0.22160604  0.47905106     0.09400
C330        C  0.63021005  0.21629859  0.45816971    -0.12800
H331        H  0.60552467  0.24055618  0.41402283     0.13400
H332        H  0.67587283  0.32118888  0.44483282     0.13400
H333        H  0.68734524  0.26874404  0.49195127     0.13400
H334        H  0.61673748  0.18803028  0.46175902     0.13400
C335        C  0.61312470  0.02676308  0.22789234    -0.12700
C336        C  0.61141962  0.06223510  0.21212837    -0.14300
C337        C  0.60924406  0.22931607  0.21617653    -0.12700
C338        C  0.61314384  0.26299818  0.23284416    -0.14300
C339        C  0.51638316  0.38510153  0.34089062    -0.12700
C340        C  0.49188783  0.37578590  0.34340847    -0.14300
O341        O  0.61281693  0.30627059  0.87254841    -0.77900
C342        C  0.54484585  0.39102575  0.83509265     0.83100
O343        O  0.62748951  0.33686266  0.74416732    -0.79000
O344        O  0.60145251  0.49156402  0.78350920    -0.80500
O345        O  0.64971816  0.44844715  0.88601464    -0.80300
O346        O  0.65075102  0.34301176  0.88890378    -0.78900
Zn347      Zn  0.60063292  0.33970017  0.82768530     1.55700
O348        O  0.60916659  0.48287459  0.87182705    -0.80300
Cd349      Cd  0.65271917  0.39477219  0.85422001     1.59700
Cd350      Cd  0.63943904  0.39441587  0.77115032     1.59600
O351        O  0.69164852  0.39277072  0.83238209    -0.80300
O352        O  0.62184329  0.39383439  0.81926942    -1.90800
Cd353      Cd  0.59727754  0.44839043  0.82655812     1.59900
O354        O  0.68350408  0.39193617  0.77451152    -0.80300
O355        O  0.55549543  0.42988298  0.83254876    -0.78900
C356        C  0.61513409  0.30174332  0.75527171     0.83600
C357        C  0.63334789  0.31190771  0.89374436     0.83300
O358        O  0.55964394  0.35511431  0.83327892    -0.77900
C359        C  0.63100185  0.47840186  0.89145368     0.84100
O360        O  0.60499084  0.29860525  0.78622394    -0.78000
C361        C  0.70047865  0.39147256  0.80084032     0.84200
C362        C  0.61414483  0.48912352  0.75398910     0.84500
O363        O  0.62829415  0.45436337  0.74470901    -0.80400
C364        C  0.60265139  0.18839626  0.69701349     0.87100
C365        C  0.57103681  0.18143634  0.69217862    -0.53200
C366        C  0.56478205  0.14293517  0.67493207     0.10000
C367        C  0.59070715  0.11525746  0.66340828     0.20900
C368        C  0.61355283  0.14527680  0.71572373    -0.53900
C369        C  0.60706554  0.10692212  0.69817085     0.10100
C370        C  0.61490494  0.18675495  0.65987751    -0.53400
C371        C  0.60875215  0.14855732  0.64220272     0.10700
H372        H  0.55502703  0.20371914  0.70305597     0.15200
H373        H  0.58555644  0.08403925  0.64915705     0.00900
H374        H  0.62406943  0.14499676  0.74131120     0.15500
H375        H  0.62782782  0.21303513  0.64878323     0.15300
C376        C  0.70283898  0.13670382  0.52947441     0.87100
C377        C  0.69296166  0.09965237  0.00632954    -0.53200
C378        C  0.66496479  0.10142799  0.99797360     0.10000
C379        C  0.64897093  0.14152086  0.01412679     0.20900
C380        C  0.69311162  0.18084874  0.00954125    -0.53900
C381        C  0.66498269  0.18314839  0.00133062     0.10100
C382        C  0.68354461  0.13484921  0.56201802    -0.53400
C383        C  0.65559128  0.13800357  0.55395133     0.10700
H384        H  0.70726042  0.07403584  0.99627382     0.15200
H385        H  0.62609030  0.14220564  0.00824670     0.00900
H386        H  0.70801781  0.20587531  0.00119939     0.15500
H387        H  0.69058048  0.13149451  0.58918595     0.15300
O388        O  0.91569106  0.22412285  0.61859117    -0.77900
C389        C  0.98058221  0.12510522  0.58621203     0.83100
O390        O  0.89825242  0.20145341  0.99353295    -0.79000
O391        O  0.91912802  0.03738318  0.53343345    -0.80500
O392        O  0.87731737  0.08901395  0.64091601    -0.80300
O393        O  0.87304702  0.19744983  0.62868674    -0.78900
Zn394      Zn  0.92838114  0.18682854  0.57607393     1.55700
O395        O  0.91148994  0.04423218  0.62126209    -0.80300
Cd396      Cd  0.87313945  0.13826267  0.60291880     1.59700
Cd397      Cd  0.88577170  0.13835177  0.51947858     1.59600
O398        O  0.83439352  0.13250639  0.58020952    -0.80300
O399        O  0.90364664  0.13627278  0.56797501    -1.90800
Cd400      Cd  0.92453515  0.07822632  0.57627411     1.59900
O401        O  0.84161030  0.13831725  0.52239523    -0.80300
O402        O  0.96686755  0.08913697  0.58309777    -0.78900
C403        C  0.91347773  0.22947892  0.50318441     0.83600
C404        C  0.89206685  0.22585825  0.63436005     0.83300
O405        O  0.96878967  0.16396730  0.58422020    -0.77900
C406        C  0.89287005  0.05398560  0.64409210     0.84100
O407        O  0.92620542  0.22878583  0.53303238    -0.78000
C408        C  0.82506997  0.13448396  0.54867323     0.84200
C409        C  0.90864141  0.04299548  0.50261798     0.84500
O410        O  0.89608181  0.08398275  0.99205337    -0.80400
C411        C  0.92169551  0.43307774  0.94432118     0.87100
C412        C  0.90820874  0.42763282  0.90789096    -0.53200
C413        C  0.91658061  0.38932045  0.89124141     0.10000
C414        C  0.93774014  0.35972022  0.91275772     0.20900
C415        C  0.91473875  0.38995987  0.96500811    -0.53900
C416        C  0.92320451  0.35140919  0.94852734     0.10100
C417        C  0.95335400  0.42994854  0.93811163    -0.53400
C418        C  0.96180523  0.39164247  0.92179949     0.10700
H419        H  0.89328465  0.45179605  0.89631669     0.15200
H420        H  0.94470069  0.32852826  0.89930143     0.00900
H421        H  0.90464684  0.38997783  0.99065881     0.15500
H422        H  0.96797639  0.45522464  0.94683620     0.15300
C423        C  0.82210311  0.38367538  0.78001100     0.87100
C424        C  0.83200985  0.42641594  0.76119386    -0.53200
C425        C  0.85977207  0.42555388  0.75189162     0.10000
C426        C  0.87538435  0.38177353  0.76306462     0.20900
C427        C  0.83045974  0.34540974  0.75533911    -0.53900
C428        C  0.85806860  0.34494494  0.74538826     0.10100
C429        C  0.84219774  0.37775447  0.81184252    -0.53400
C430        C  0.86990590  0.37669380  0.80298988     0.10700
H431        H  0.81757192  0.45365928  0.75376166     0.15200
H432        H  0.89805087  0.38119126  0.75635651     0.00900
H433        H  0.81523091  0.32193145  0.74533456     0.15500
H434        H  0.83585098  0.37546629  0.83918896     0.15300
O435        O  0.46733547  0.14989660  0.68187257    -0.77900
C436        C  0.39082034  0.20053007  0.62670119     0.83100
O437        O  0.39861335  0.16852803  0.77146745    -0.79000
O438        O  0.33583742  0.10679555  0.68294213    -0.80500
O439        O  0.41741383  0.02196567  0.64393242    -0.80300
O440        O  0.47132372  0.07507631  0.68330657    -0.78900
Zn441      Zn  0.42650808  0.16563582  0.68806670     1.55700
O442        O  0.37987386  0.06204708  0.62591620    -0.80300
Cd443      Cd  0.42949029  0.05649845  0.68930277     1.59700
Cd444      Cd  0.38738388  0.11029781  0.74470054     1.59600
O445        O  0.42572859  0.01338865  0.73268285    -0.80300
O446        O  0.40512478  0.11149393  0.69649170    -1.90800
Cd447      Cd  0.37453705  0.11219706  0.66106367     1.59900
O448        O  0.39935546  0.05081947  0.77178941    -0.80300
O449        O  0.37307891  0.16989042  0.63174774    -0.78900
C450        C  0.41170951  0.20313766  0.76073385     0.83600
C451        C  0.48205067  0.11386687  0.68041963     0.83300
O452        O  0.41357560  0.20192818  0.64457464    -0.77900
C453        C  0.39722206  0.02956059  0.62209964     0.84100
O454        O  0.42258832  0.20574790  0.73016369    -0.78000
C455        C  0.41350924  0.01601485  0.76252286     0.84200
C456        C  0.32660663  0.10853703  0.71428205     0.84500
O457        O  0.34324195  0.11084556  0.74085818    -0.80400
C458        C  0.42416335  0.31695954  0.81849677     0.87100
C459        C  0.41170438  0.31897954  0.85549628    -0.53200
C460        C  0.41791073  0.35719488  0.87310207     0.10000
C461        C  0.43615533  0.39026768  0.85187626     0.20900
C462        C  0.41352827  0.36003620  0.79947869    -0.53900
C463        C  0.42003638  0.39851315  0.81686806     0.10100
C464        C  0.45577217  0.32367526  0.82361134    -0.53400
C465        C  0.46206192  0.36225160  0.84073063     0.10700
H466        H  0.39872676  0.29279611  0.86663235     0.15200
H467        H  0.44133992  0.42152988  0.86604523     0.00900
H468        H  0.40318285  0.36017811  0.77378515     0.15500
H469        H  0.47177229  0.30116543  0.81299104     0.15300
C470        C  0.32318124  0.37310495  0.98390897     0.87100
C471        C  0.33042545  0.32992640  0.50524256    -0.53200
C472        C  0.35796034  0.32677457  0.51592588     0.10000
C473        C  0.37604908  0.36477999  0.50068347     0.20900
C474        C  0.33355376  0.41125769  0.50412425    -0.53900
C475        C  0.36133473  0.40774454  0.51373826     0.10100
C476        C  0.34301888  0.37201871  0.95197137    -0.53400
C477        C  0.37078472  0.36809776  0.96098136     0.10700
H478        H  0.31464734  0.30605480  0.51316441     0.15200
H479        H  0.39868753  0.36246347  0.50786008     0.00900
H480        H  0.31986126  0.43872870  0.51235578     0.15500
H481        H  0.33644278  0.37438070  0.92456376     0.15300
O482        O  0.11412891  0.46350096  0.89230838    -0.77900
C483        C  0.04637755  0.37552708  0.92390550     0.83100
O484        O  0.12658842  0.43011798  0.51909197    -0.79000
O485        O  0.10514126  0.27631149  0.97589748    -0.80500
O486        O  0.15423395  0.31278378  0.87973665    -0.80300
O487        O  0.14970621  0.42118341  0.87290197    -0.78900
Zn488      Zn  0.10041895  0.42848209  0.93521938     1.55700
O489        O  0.11225438  0.28363846  0.88862063    -0.80300
Cd490      Cd  0.15378573  0.37035850  0.90849024     1.59700
Cd491      Cd  0.14037760  0.37330460  0.99171866     1.59600
O492        O  0.19235655  0.37520020  0.93143795    -0.80300
O493        O  0.12303948  0.37392885  0.94295126    -1.90800
Cd494      Cd  0.10019255  0.31946689  0.93341472     1.59900
O495        O  0.18448365  0.37622268  0.98923694    -0.80300
O496        O  0.05841267  0.33716127  0.92687257    -0.78900
C497        C  0.11232206  0.46489241  0.50905214     0.83600
C498        C  0.13355886  0.45548371  0.87005277     0.83300
O499        O  0.05975374  0.41208362  0.92623019    -0.77900
C500        C  0.13574797  0.28393953  0.87270900     0.84100
O501        O  0.10211539  0.46842735  0.97856841    -0.78000
C502        C  0.20131437  0.37677384  0.96306798     0.84200
C503        C  0.11777539  0.27793334  0.50529455     0.84500
O504        O  0.13087125  0.31253299  0.51560065    -0.80400
C505        C  0.10608458  0.16368674  0.56305092     0.87100
C506        C  0.11928731  0.15960959  0.59976704    -0.53200
C507        C  0.11071160  0.12317819  0.61857279     0.10000
C508        C  0.08954883  0.09357601  0.59847817     0.20900
C509        C  0.11306414  0.11908802  0.54485091    -0.53900
C510        C  0.10434048  0.08212114  0.56325224     0.10100
C511        C  0.07441616  0.16325994  0.56895942    -0.53400
C512        C  0.06560232  0.12674543  0.58728562     0.10700
H513        H  0.13406869  0.18362314  0.61013787     0.15200
H514        H  0.08237888  0.06379508  0.61361648     0.00900
H515        H  0.12325217  0.11700806  0.51931369     0.15500
H516        H  0.06002574  0.18925413  0.55882669     0.15300
C517        C  0.20461986  0.11685750  0.73176333     0.87100
C518        C  0.19607323  0.15934341  0.75161728    -0.53200
C519        C  0.16851126  0.16147213  0.76181521     0.10000
C520        C  0.15122947  0.12176814  0.74808100     0.20900
C521        C  0.19460138  0.07789278  0.75498735    -0.53900
C522        C  0.16677889  0.08042011  0.76357936     0.10100
C523        C  0.18471911  0.11673167  0.69951252    -0.53400
C524        C  0.15690296  0.11895221  0.70804271     0.10700
H525        H  0.21138368  0.18425451  0.75879815     0.15200
H526        H  0.12855028  0.12321149  0.75472612     0.00900
H527        H  0.20868258  0.05132990  0.76478593     0.15500
H528        H  0.19130773  0.11394941  0.67230315     0.15300
C529        C  0.12163703  0.11529317  0.65392750    -0.12700
C530        C  0.13544314  0.11566462  0.68089479    -0.14300
C531        C  0.12234038  0.23333117  0.82238493    -0.12800
C532        C  0.14264624  0.25031624  0.84560725     0.09400
C533        C  0.17080722  0.23690932  0.84175046    -0.12800
C534        C  0.17880118  0.20799018  0.81499876    -0.12800
C535        C  0.15899823  0.19233690  0.79041324     0.09400
C536        C  0.13049813  0.20470115  0.79481084    -0.12800
H537        H  0.10042919  0.24330514  0.82485490     0.13400
H538        H  0.18682720  0.24874407  0.85969730     0.13400
H539        H  0.20069085  0.19760324  0.81418234     0.13400
H540        H  0.11461249  0.19301847  0.77669052     0.13400
C541        C  0.15565686  0.47211632  0.81234221    -0.12800
C542        C  0.13847454  0.48647092  0.84024077     0.09400
C543        C  0.12717587  0.03154199  0.84066774    -0.12800
C544        C  0.13567014  0.06191375  0.81453134    -0.12800
C545        C  0.15391715  0.04767301  0.78770098     0.09400
C546        C  0.16198549  0.00233006  0.78589983    -0.12800
H547        H  0.16350279  0.43778978  0.81116882     0.13400
H548        H  0.11426763  0.04353432  0.86216374     0.13400
H549        H  0.12929980  0.09688903  0.81645658     0.13400
H550        H  0.17554833  0.99042738  0.76499810     0.13400
C551        C  0.11728852  0.23871309  0.52747367    -0.12700
C552        C  0.11428526  0.20411839  0.54365384    -0.14300
C553        C  0.10701660  0.03720143  0.54861325    -0.12700
C554        C  0.10958460  0.00238326  0.53240655    -0.14300
C555        C  0.27286157  0.37839713  0.50503473    -0.12800
C556        C  0.29147399  0.37698680  0.97754739     0.09400
C557        C  0.27929892  0.37968885  0.94362061    -0.12800
C558        C  0.25012813  0.38046316  0.93931502    -0.12800
C559        C  0.23217203  0.37858267  0.96867066     0.09400
C560        C  0.24361881  0.37930063  0.50046767    -0.12800
H561        H  0.28137901  0.37997108  0.53160674     0.13400
H562        H  0.29181193  0.38071342  0.92004034     0.13400
H563        H  0.24165541  0.38195659  0.91267816     0.13400
H564        H  0.23033906  0.38174497  0.52350393     0.13400
C565        C  0.40617310  0.36548339  0.90758597    -0.12700
C566        C  0.39220460  0.36769085  0.93406904    -0.14300
C567        C  0.27782461  0.10868326  0.68914241    -0.12800
C568        C  0.29567010  0.10901925  0.71899466     0.09400
C569        C  0.28357429  0.11145382  0.75257962    -0.12800
C570        C  0.25432057  0.11385451  0.75608353    -0.12800
C571        C  0.23635611  0.11391724  0.72617318     0.09400
C572        C  0.24864070  0.11115733  0.69261194    -0.12800
H573        H  0.28640677  0.10695876  0.66276513     0.13400
H574        H  0.29666655  0.11188058  0.77610412     0.13400
H575        H  0.24556755  0.11589636  0.78236902     0.13400
H576        H  0.23619135  0.11105917  0.66871823     0.13400
C577        C  0.40400734  0.25188299  0.57638730    -0.12800
C578        C  0.38385609  0.23512517  0.59978142     0.09400
C579        C  0.35579410  0.24949204  0.59612505    -0.12800
C580        C  0.34775337  0.27949433  0.56939265    -0.12800
C581        C  0.36740815  0.29507051  0.54467626     0.09400
C582        C  0.39579069  0.28144570  0.54880770    -0.12800
H583        H  0.42580273  0.24093360  0.57869112     0.13400
H584        H  0.33995091  0.23755412  0.61420414     0.13400
H585        H  0.32599086  0.29067087  0.56860789     0.13400
H586        H  0.41153717  0.29278992  0.53045001     0.13400
C587        C  0.39350565  0.42521301  0.56445791    -0.12800
C588        C  0.37466641  0.44008683  0.53774846     0.09400
C589        C  0.36653668  0.48552711  0.53613541    -0.12800
C590        C  0.37551017  0.01570140  0.56348036    -0.12800
C591        C  0.39268792  0.00008707  0.59161180     0.09400
C592        C  0.40240848  0.45477398  0.59060082    -0.12800
H593        H  0.40001231  0.39024430  0.56643815     0.13400
H594        H  0.35262614  0.49816100  0.51535776     0.13400
H595        H  0.36781394  0.05016091  0.56242364     0.13400
H596        H  0.41569817  0.44210640  0.61199317     0.13400
C597        C  0.41628556  0.44260671  0.80062082    -0.12700
C598        C  0.41455061  0.47765834  0.78410543    -0.14300
C599        C  0.41430258  0.24127927  0.78338572    -0.12700
C600        C  0.41786486  0.27528435  0.79976407    -0.14300
C601        C  0.01650498  0.37763682  0.91865963    -0.12700
C602        C  0.99125970  0.38151558  0.91748506    -0.14300
C603        C  0.90521558  0.37846870  0.85693682    -0.12700
C604        C  0.89143245  0.37521868  0.83017509    -0.14300
C605        C  0.90040286  0.98016094  0.67578126    -0.12800
C606        C  0.88831057  0.02355520  0.67458832     0.09400
C607        C  0.87004801  0.03674972  0.70173531    -0.12800
C608        C  0.86124809  0.50457568  0.72842227    -0.12800
C609        C  0.87172326  0.46016951  0.72801786     0.08600
C610        C  0.89138813  0.44801644  0.70208916    -0.12800
H611        H  0.91468555  0.96911356  0.65535842     0.13400
H612        H  0.86076412  0.07023176  0.70197912     0.13400
H613        H  0.84658944  0.51537326  0.74849302     0.13400
H614        H  0.89967054  0.41400531  0.70070468     0.13400
C615        C  0.85796949  0.27832505  0.66112109    -0.12800
C616        C  0.88556156  0.26113302  0.66003362     0.09400
C617        C  0.90504699  0.27398628  0.68588405    -0.12800
C618        C  0.89640920  0.30178793  0.71365214    -0.12800
C619        C  0.86828812  0.31711975  0.71560431     0.09400
C620        C  0.84952329  0.30630736  0.68826009    -0.12800
H621        H  0.84267146  0.26933164  0.64118078     0.13400
H622        H  0.92641996  0.26076834  0.68559184     0.13400
H623        H  0.91141232  0.30988047  0.73413545     0.13400
H624        H  0.82808568  0.31918692  0.68778154     0.13400
C625        C  0.91360826  0.47494581  0.96211255    -0.12700
C626        C  0.90875895  0.00941108  0.97865456    -0.14300
C627        C  0.91781632  0.27206118  0.98098497    -0.12700
C628        C  0.92028857  0.30725379  0.96486064    -0.14300
C629        C  0.01053648  0.12149911  0.59131534    -0.12700
C630        C  0.03591627  0.12043910  0.59234409    -0.14300
C631        C  0.74724875  0.13023601  0.56892529    -0.12800
C632        C  0.73470094  0.13372601  0.53521043     0.09400
C633        C  0.75244531  0.13843664  0.00564797    -0.12800
C634        C  0.78185394  0.13537572  0.50954799    -0.12800
C635        C  0.79413863  0.13288439  0.54334318     0.09400
C636        C  0.77644179  0.12981172  0.57285403    -0.12800
H637        H  0.73504528  0.12831774  0.59270929     0.13400
H638        H  0.74356456  0.13947378  0.97920375     0.13400
H639        H  0.79475048  0.14030041  0.98632907     0.13400
H640        H  0.78513244  0.12762285  0.59936299     0.13400
C641        C  0.53634187  0.12711359  0.67329375    -0.12700
C642        C  0.51181507  0.11798515  0.67559636    -0.14300
C643        C  0.63462482  0.13772218  0.58140173    -0.12700
C644        C  0.62067029  0.14010677  0.60786919    -0.14300
C645        C  0.74954908  0.38484795  0.82471985    -0.12800
C646        C  0.73129560  0.38920109  0.79539927     0.09400
C647        C  0.74286303  0.39144449  0.76148985    -0.12800
C648        C  0.77204180  0.38966869  0.75713226    -0.12800
C649        C  0.79044822  0.38530042  0.78647589     0.09400
C650        C  0.77865390  0.38286224  0.82039176    -0.12800
H651        H  0.74135431  0.38290498  0.85130088     0.13400
H652        H  0.72941702  0.39482417  0.73835311     0.13400
H653        H  0.78038376  0.39171370  0.73062157     0.13400
H654        H  0.79139447  0.37962244  0.84395699     0.13400
C655        C  0.65320942  0.49325754  0.94949783    -0.12800
C656        C  0.63549610  0.50806338  0.92164304     0.09400
C657        C  0.62668638  0.05437316  0.91915183    -0.12800
C658        C  0.63495842  0.08399434  0.94543417    -0.12800
C659        C  0.65238622  0.06910961  0.97348672     0.09400
C660        C  0.66031300  0.02364228  0.97584914    -0.12800
H661        H  0.66164695  0.45922228  0.95033447     0.13400
H662        H  0.61435901  0.06700793  0.89686184     0.13400
H663        H  0.62921281  0.11889476  0.94243881     0.13400
H664        H  0.67127402  0.01242242  0.49667029     0.13400
C665        C  0.62160636  0.24392064  0.93028498    -0.12800
C666        C  0.63785404  0.28208279  0.92472029     0.09400
C667        C  0.65947264  0.29143605  0.94886289    -0.12800
C668        C  0.66665230  0.26099908  0.97566562    -0.12800
C669        C  0.65264827  0.22007236  0.97882259     0.09400
C670        C  0.62868049  0.21353913  0.95755003    -0.12800
H671        H  0.60407573  0.23678390  0.91294381     0.13400
H672        H  0.67163659  0.32166241  0.94638403     0.13400
H673        H  0.68387868  0.26916874  0.99310383     0.13400
H674        H  0.61586204  0.18443903  0.96077465     0.13400
C675        C  0.61275294  0.02745035  0.73011761    -0.12700
C676        C  0.61103328  0.06273666  0.71400750    -0.14300
C677        C  0.60893044  0.22991981  0.71592579    -0.12700
C678        C  0.61248866  0.26373603  0.73252283    -0.14300
C679        C  0.51510354  0.38676096  0.84004563    -0.12700
C680        C  0.49055479  0.37781966  0.84245360    -0.14300
O681        O  0.61420489  0.80810842  0.37221507    -0.77900
C682        C  0.54543001  0.89164283  0.33419113     0.83100
O683        O  0.62851632  0.83620487  0.24395433    -0.79000
O684        O  0.60144233  0.99124627  0.28060605    -0.80500
O685        O  0.64896696  0.95160410  0.38481815    -0.80300
O686        O  0.65190383  0.84556155  0.38843976    -0.78900
Zn687      Zn  0.60148850  0.84090421  0.32732939     1.55700
O688        O  0.60894915  0.98643923  0.36887520    -0.80300
Cd689      Cd  0.65308630  0.89749637  0.35350403     1.59700
Cd690      Cd  0.64016419  0.89459118  0.27017302     1.59600
O691        O  0.69211716  0.89716833  0.33171654    -0.80300
O692        O  0.62241877  0.89517524  0.31826309    -1.90800
Cd693      Cd  0.59745440  0.94965526  0.32447098     1.59900
O694        O  0.68421350  0.89350315  0.27386890    -0.80300
O695        O  0.55577439  0.93061923  0.33071239    -0.78900
C696        C  0.61582565  0.80152387  0.25531183     0.83600
C697        C  0.63476342  0.81404723  0.39331548     0.83300
O698        O  0.56049736  0.85595265  0.33317243    -0.77900
C699        C  0.63039029  0.98211604  0.38919295     0.84100
O700        O  0.60552807  0.79914692  0.28621464    -0.78000
C701        C  0.70107545  0.89497718  0.30025065     0.84200
C702        C  0.61430871  0.98828585  0.25126040     0.84500
O703        O  0.62876092  0.95357058  0.24260600    -0.80400
C704        C  0.60255664  0.68810816  0.19722199     0.87100
C705        C  0.57091861  0.68135079  0.19227313    -0.53200
C706        C  0.56461672  0.64305459  0.17474937     0.10000
C707        C  0.59049299  0.61539326  0.16310911     0.20900
C708        C  0.61334891  0.64473148  0.21566115    -0.53900
C709        C  0.60681449  0.60663688  0.19778847     0.10100
C710        C  0.61485219  0.68675108  0.16009592    -0.53400
C711        C  0.60863517  0.64875182  0.14220370     0.10700
H712        H  0.55493578  0.70357281  0.20327687     0.15200
H713        H  0.58531317  0.58434587  0.14864079     0.00900
H714        H  0.62389633  0.64409529  0.24123047     0.15500
H715        H  0.62792048  0.71298466  0.14921473     0.15300
C716        C  0.70294189  0.63698922  0.02967980     0.87100
C717        C  0.69217870  0.60070172  0.50598109    -0.53200
C718        C  0.66423516  0.60341629  0.49741083     0.10000
C719        C  0.64861494  0.64354168  0.51409979     0.20900
C720        C  0.69325559  0.68170009  0.51044725    -0.53900
C721        C  0.66520048  0.68497911  0.50187428     0.10100
C722        C  0.68376258  0.63550620  0.06235730    -0.53400
C723        C  0.65577038  0.63742240  0.05434676     0.10700
H724        H  0.70625441  0.57493929  0.49567760     0.15200
H725        H  0.62576232  0.64492001  0.50810613     0.00900
H726        H  0.70856301  0.70627693  0.50249124     0.15500
H727        H  0.69088503  0.63351989  0.08955371     0.15300
O728        O  0.91555606  0.72718130  0.11847503    -0.77900
C729        C  0.97990042  0.62698202  0.08706287     0.83100
O730        O  0.89757621  0.69773540  0.49383381    -0.79000
O731        O  0.91848073  0.54037205  0.03315778    -0.80500
O732        O  0.87704736  0.59286562  0.14153077    -0.80300
O733        O  0.87263012  0.70145171  0.12820354    -0.78900
Zn734      Zn  0.92827175  0.68956995  0.07624462     1.55700
O735        O  0.91035978  0.54710180  0.12101812    -0.80300
Cd736      Cd  0.87292194  0.64175361  0.10304959     1.59700
Cd737      Cd  0.88572736  0.64183029  0.01935372     1.59600
O738        O  0.83438862  0.63563298  0.08004570    -0.80300
O739        O  0.90333785  0.63938827  0.06798833    -1.90800
Cd740      Cd  0.92372492  0.58096199  0.07620256     1.59900
O741        O  0.84159871  0.64190192  0.02222300    -0.80300
O742        O  0.96600506  0.59125165  0.08364436    -0.78900
C743        C  0.91385056  0.73276430  0.00344815     0.83600
C744        C  0.89181559  0.72957178  0.13390697     0.83300
O745        O  0.96839551  0.66604011  0.08495397    -0.77900
C746        C  0.89221483  0.55734991  0.14430225     0.84100
O747        O  0.92660445  0.73166285  0.03327351    -0.78000
C748        C  0.82508786  0.63776412  0.04850228     0.84200
C749        C  0.90834832  0.54635604  0.00219685     0.84500
O750        O  0.89547375  0.58032575  0.49315963    -0.80400
C751        C  0.92148884  0.92950414  0.44493673     0.87100
C752        C  0.90831594  0.92479410  0.40828032    -0.53200
C753        C  0.91660921  0.88662980  0.39139681     0.10000
C754        C  0.93739337  0.85636983  0.41296760     0.20900
C755        C  0.91407448  0.88626231  0.46514976    -0.53900
C756        C  0.92247432  0.84780980  0.44847818     0.10100
C757        C  0.95317999  0.92598018  0.43918121    -0.53400
C758        C  0.96156825  0.88781347  0.42264921     0.10700
H759        H  0.89369219  0.94940435  0.39667843     0.15200
H760        H  0.94430180  0.82528218  0.39933025     0.00900
H761        H  0.90379674  0.88611616  0.49068305     0.15500
H762        H  0.96786021  0.95098196  0.44824518     0.15300
C763        C  0.82275002  0.88838793  0.27968223     0.87100
C764        C  0.83317769  0.93154646  0.26201864    -0.53200
C765        C  0.86092511  0.93019126  0.25265608     0.10000
C766        C  0.87603324  0.88555695  0.26278600     0.20900
C767        C  0.83068093  0.85096575  0.25399541    -0.53900
C768        C  0.85831199  0.85000536  0.24415971     0.10100
C769        C  0.84274621  0.88045546  0.31137930    -0.53400
C770        C  0.87045390  0.87889514  0.30255228     0.10700
H771        H  0.81902087  0.95935830  0.25507221     0.15200
H772        H  0.89870506  0.88462760  0.25610465     0.00900
H773        H  0.81521337  0.82824981  0.24347891     0.15500
H774        H  0.83633391  0.87697538  0.33862949     0.15300
O775        O  0.46706329  0.64918789  0.18139896    -0.77900
C776        C  0.39030472  0.69832491  0.12653982     0.83100
O777        O  0.39857865  0.66790843  0.27157190    -0.79000
O778        O  0.33569708  0.60447837  0.18330529    -0.80500
O779        O  0.41794563  0.52005498  0.14516516    -0.80300
O780        O  0.47150685  0.57446768  0.18375744    -0.78900
Zn781      Zn  0.42623936  0.66449169  0.18806285     1.55700
O782        O  0.38019485  0.55947659  0.12694328    -0.80300
Cd783      Cd  0.42977617  0.55556349  0.19007265     1.59700
Cd784      Cd  0.38722072  0.60945671  0.24504849     1.59600
O785        O  0.42616978  0.51294695  0.23362237    -0.80300
O786        O  0.40504458  0.61027810  0.19688097    -1.90800
Cd787      Cd  0.37444830  0.61011835  0.16148515     1.59900
O788        O  0.39922252  0.55009809  0.27229404    -0.80300
O789        O  0.37278102  0.66734977  0.13155230    -0.78900
C790        C  0.41180984  0.70234038  0.26070956     0.83600
C791        C  0.48198464  0.61335805  0.18026987     0.83300
O792        O  0.41291812  0.70035818  0.14462751    -0.77900
C793        C  0.39770932  0.52717362  0.12333974     0.84100
O794        O  0.42261200  0.70472047  0.23008878    -0.78000
C795        C  0.41367593  0.51549127  0.26326648     0.84200
C796        C  0.32642292  0.60666505  0.21461195     0.84500
O797        O  0.34303444  0.60967614  0.24116135    -0.80400
C798        C  0.42490247  0.81628758  0.31819327     0.87100
C799        C  0.41255621  0.81820765  0.35525625    -0.53200
C800        C  0.41876800  0.85640493  0.37287167     0.10000
C801        C  0.43691643  0.88955310  0.35162509     0.20900
C802        C  0.41416591  0.85939938  0.29928823    -0.53900
C803        C  0.42068089  0.89783773  0.31673754     0.10100
C804        C  0.45652856  0.82309655  0.32315674    -0.53400
C805        C  0.46281940  0.86167704  0.34029504     0.10700
H806        H  0.39958518  0.79201782  0.36639557     0.15200
H807        H  0.44209755  0.92080222  0.36581614     0.00900
H808        H  0.40371921  0.85959608  0.27365854     0.15500
H809        H  0.47252091  0.80069602  0.31238704     0.15300
C810        C  0.32365051  0.87282748  0.48301838     0.87100
C811        C  0.33016804  0.82826900  0.00516919    -0.53200
C812        C  0.35768783  0.82483094  0.01585215     0.10000
C813        C  0.37580600  0.86325214  0.00128732     0.20900
C814        C  0.33332384  0.90957572  0.00569190    -0.53900
C815        C  0.36110567  0.90579529  0.01512887     0.10100
C816        C  0.34360118  0.87091218  0.45121915    -0.53400
C817        C  0.37135307  0.86785271  0.46042161     0.10700
H818        H  0.31438684  0.80418927  0.01267221     0.15200
H819        H  0.39844158  0.86074182  0.00846743     0.00900
H820        H  0.31967092  0.93684563  0.01441658     0.15500
H821        H  0.33711347  0.87249553  0.42375457     0.15300
O822        O  0.11301499  0.96233102  0.39178543    -0.77900
C823        C  0.04621593  0.87307132  0.42437120     0.83100
O824        O  0.12606352  0.92993801  0.01986897    -0.79000
O825        O  0.10574573  0.77564360  0.47598306    -0.80500
O826        O  0.15406455  0.81255853  0.37863455    -0.80300
O827        O  0.14921610  0.92121662  0.37251814    -0.78900
Zn828      Zn  0.09996104  0.92717092  0.43496243     1.55700
O829        O  0.11256404  0.78230745  0.38879219    -0.80300
Cd830      Cd  0.15374643  0.86995181  0.40765323     1.59700
Cd831      Cd  0.14089127  0.87280080  0.49096733     1.59600
O832        O  0.19259594  0.87415242  0.43016421    -0.80300
O833        O  0.12316251  0.87310990  0.44243525    -1.90800
Cd834      Cd  0.10053458  0.81831436  0.43336166     1.59900
O835        O  0.18498184  0.87495206  0.48801584    -0.80300
O836        O  0.05863080  0.83499877  0.42703698    -0.78900
C837        C  0.11201157  0.96486965  0.00968501     0.83600
C838        C  0.13261260  0.95497543  0.36962473     0.83300
O839        O  0.05926886  0.90994313  0.42670245    -0.77900
C840        C  0.13578386  0.78313790  0.37231675     0.84100
O841        O  0.10206104  0.96751501  0.47807009    -0.78000
C842        C  0.20171406  0.87528640  0.46174958     0.84200
C843        C  0.11732647  0.77791168  0.00537698     0.84500
O844        O  0.13041694  0.81240052  0.01592493    -0.80400
C845        C  0.10514830  0.66393641  0.06334311     0.87100
C846        C  0.11862180  0.65998556  0.09990210    -0.53200
C847        C  0.11006872  0.62374825  0.11894341     0.10000
C848        C  0.08866121  0.59419420  0.09926281     0.20900
C849        C  0.11183391  0.61916142  0.04524784    -0.53900
C850        C  0.10315163  0.58238611  0.06392047     0.10100
C851        C  0.07353602  0.66383376  0.06965135    -0.53400
C852        C  0.06475821  0.62751220  0.08824445     0.10700
H853        H  0.13357509  0.68392119  0.10999179     0.15200
H854        H  0.08151418  0.56457991  0.11462527     0.00900
H855        H  0.12187357  0.61682077  0.01963288     0.15500
H856        H  0.05915222  0.68988129  0.05958851     0.15300
C857        C  0.20436670  0.61508686  0.23204389     0.87100
C858        C  0.19620572  0.65735124  0.25245775    -0.53200
C859        C  0.16858370  0.66010325  0.26227233     0.10000
C860        C  0.15093322  0.62122166  0.24800171     0.20900
C861        C  0.19378635  0.57595399  0.25470623    -0.53900
C862        C  0.16593306  0.57920494  0.26312178     0.10100
C863        C  0.18456351  0.61616235  0.19964724    -0.53400
C864        C  0.15673561  0.61896178  0.20804078     0.10700
H865        H  0.21172547  0.68161635  0.26031904     0.15200
H866        H  0.12823763  0.62322495  0.25454026     0.00900
H867        H  0.20749806  0.54879737  0.26430972     0.15500
H868        H  0.19119379  0.61351872  0.17244771     0.15300
C869        C  0.12126935  0.61593112  0.15412573    -0.12700
C870        C  0.13527511  0.61617431  0.18090316    -0.14300
C871        C  0.12258784  0.73413198  0.32113886    -0.12800
C872        C  0.14262124  0.74923865  0.34552807     0.09400
C873        C  0.17049527  0.73376244  0.34312255    -0.12800
C874        C  0.17852562  0.70460273  0.31652992    -0.12800
C875        C  0.15906557  0.69090820  0.29078776     0.09400
C876        C  0.13080804  0.70529907  0.29377165    -0.12800
H877        H  0.10091868  0.74581170  0.32252318     0.13400
H878        H  0.18621429  0.74425656  0.36202202     0.13400
H879        H  0.20013299  0.69258477  0.31657399     0.13400
H880        H  0.11522394  0.69510399  0.27465765     0.13400
C881        C  0.15411138  0.97182279  0.31166826    -0.12800
C882        C  0.13724989  0.98614250  0.33987034     0.09400
C883        C  0.12602542  0.53114267  0.34015866    -0.12800
C884        C  0.13473895  0.56140040  0.31407470    -0.12800
C885        C  0.15252959  0.54670409  0.28691121     0.09400
C886        C  0.15970718  0.50107969  0.28454908    -0.12800
H887        H  0.16167147  0.93736914  0.31014367     0.13400
H888        H  0.11365199  0.54345000  0.36203478     0.13400
H889        H  0.12902682  0.59660475  0.31637494     0.13400
H890        H  0.17288420  0.48890544  0.26335871     0.13400
C891        C  0.11654787  0.73866753  0.02749148    -0.12700
C892        C  0.11337437  0.70415770  0.04371387    -0.14300
C893        C  0.10583859  0.53731745  0.04956562    -0.12700
C894        C  0.10859863  0.50249025  0.03341341    -0.14300
C895        C  0.27270297  0.87548039  0.00630016    -0.12800
C896        C  0.29193220  0.87566238  0.47636401     0.09400
C897        C  0.27983040  0.87454918  0.44238409    -0.12800
C898        C  0.25065655  0.87494384  0.43796950    -0.12800
C899        C  0.23261859  0.87642075  0.46726442     0.09400
C900        C  0.24346159  0.87673742  0.00184524    -0.12800
H901        H  0.28128312  0.87460164  0.03290143     0.13400
H902        H  0.29240277  0.87269370  0.41888309     0.13400
H903        H  0.24224538  0.87357144  0.41134351     0.13400
H904        H  0.23021903  0.87679434  0.02499250     0.13400
C905        C  0.40694616  0.86478645  0.40727945    -0.12700
C906        C  0.39287267  0.86719083  0.43365358    -0.14300
C907        C  0.27762768  0.60733079  0.18943314    -0.12800
C908        C  0.29546448  0.60685152  0.21930791     0.09400
C909        C  0.28333176  0.60813940  0.25292225    -0.12800
C910        C  0.25406129  0.61038773  0.25643488    -0.12800
C911        C  0.23611209  0.61153139  0.22650261     0.09400
C912        C  0.24843654  0.60971768  0.19290964    -0.12800
H913        H  0.28622553  0.60647332  0.16303469     0.13400
H914        H  0.29641219  0.60781842  0.27647252     0.13400
H915        H  0.24529142  0.61165769  0.28274285     0.13400
H916        H  0.23602251  0.61047195  0.16898038     0.13400
C917        C  0.40349392  0.74943091  0.07613268    -0.12800
C918        C  0.38329089  0.73262029  0.09942800     0.09400
C919        C  0.35521951  0.74684869  0.09562829    -0.12800
C920        C  0.34724579  0.77693985  0.06892249    -0.12800
C921        C  0.36698877  0.79271223  0.04437921     0.09400
C922        C  0.39534983  0.77905639  0.04857781    -0.12800
H923        H  0.42529668  0.73855856  0.07855159     0.13400
H924        H  0.33934258  0.73484227  0.11363178     0.13400
H925        H  0.32548241  0.78810913  0.06807736     0.13400
H926        H  0.41114777  0.79052917  0.03034044     0.13400
C927        C  0.39291808  0.92266371  0.06633218    -0.12800
C928        C  0.37447680  0.93782028  0.03929527     0.09400
C929        C  0.36669108  0.98337527  0.03742021    -0.12800
C930        C  0.37701039  0.51365696  0.06427036    -0.12800
C931        C  0.39333993  0.49752226  0.09298672     0.09400
C932        C  0.40179685  0.95220346  0.09252539    -0.12800
H933        H  0.39912431  0.88756729  0.06844039     0.13400
H934        H  0.35305988  0.99614522  0.01639927     0.13400
H935        H  0.37007290  0.54848525  0.06272649     0.13400
H936        H  0.41477800  0.93943661  0.11417746     0.13400
C937        C  0.41676244  0.94201644  0.30074327    -0.12700
C938        C  0.41494715  0.97724790  0.28450812    -0.14300
C939        C  0.41469155  0.74054870  0.28325507    -0.12700
C940        C  0.41850598  0.77460384  0.29949174    -0.14300
C941        C  0.01630186  0.87441279  0.41939236    -0.12700
C942        C  0.99102693  0.87773010  0.41830888    -0.14300
C943        C  0.90558642  0.87681697  0.35671285    -0.12700
C944        C  0.89192685  0.87517883  0.32972930    -0.14300
C945        C  0.89972546  0.48331788  0.17559113    -0.12800
C946        C  0.88787855  0.52689161  0.17485722     0.09400
C947        C  0.87023715  0.54023440  0.20259776    -0.12800
C948        C  0.86294267  0.00929512  0.22939415    -0.12800
C949        C  0.87294621  0.96462701  0.22868044     0.08600
C950        C  0.89185482  0.95192700  0.20205068    -0.12800
H951        H  0.91354569  0.47213844  0.15472150     0.13400
H952        H  0.86117541  0.57385072  0.20318885     0.13400
H953        H  0.84885918  0.02046477  0.24997954     0.13400
H954        H  0.89975428  0.91771893  0.20041007     0.13400
C955        C  0.85806908  0.78334739  0.15989185    -0.12800
C956        C  0.88546131  0.76527141  0.15925446     0.09400
C957        C  0.90492345  0.77777755  0.18523482    -0.12800
C958        C  0.89641763  0.80600768  0.21277277    -0.12800
C959        C  0.86845876  0.82217954  0.21434541     0.09400
C960        C  0.84976604  0.81183382  0.18679589    -0.12800
H961        H  0.84281399  0.77463422  0.13981666     0.13400
H962        H  0.92614409  0.76390192  0.18526380     0.13400
H963        H  0.91136616  0.81367662  0.23342742     0.13400
H964        H  0.82847740  0.82534695  0.18605244     0.13400
C965        C  0.91352844  0.97129100  0.46285702    -0.12700
C966        C  0.90801728  0.50574647  0.47994702    -0.14300
C967        C  0.91684195  0.76845395  0.48082814    -0.12700
C968        C  0.91936022  0.80357515  0.46461440    -0.14300
C969        C  0.00975908  0.62287255  0.09256615    -0.12700
C970        C  0.03511658  0.62147494  0.09363716    -0.14300
C971        C  0.74743470  0.63187644  0.06893309    -0.12800
C972        C  0.73480974  0.63523717  0.03527531     0.09400
C973        C  0.75210864  0.63776934  0.50632180    -0.12800
C974        C  0.78185325  0.63829591  0.00945130    -0.12800
C975        C  0.79419673  0.63583883  0.04320829     0.09400
C976        C  0.77660223  0.63217553  0.07276552    -0.12800
H977        H  0.73531281  0.62923127  0.09273806     0.13400
H978        H  0.74332384  0.64009804  0.47985806     0.13400
H979        H  0.79447614  0.63933984  0.48725566     0.13400
H980        H  0.78534884  0.62992618  0.09924382     0.13400
C981        C  0.53618275  0.62723962  0.17297576    -0.12700
C982        C  0.51169869  0.61784994  0.17525561    -0.14300
C983        C  0.63484761  0.63748713  0.08176860    -0.12700
C984        C  0.62076624  0.64022751  0.10806419    -0.14300
C985        C  0.75013215  0.88900242  0.32426489    -0.12800
C986        C  0.73192088  0.89377466  0.29494110     0.09400
C987        C  0.74354754  0.89731519  0.26112690    -0.12800
C988        C  0.77273837  0.89598988  0.25684097    -0.12800
C989        C  0.79109813  0.89056926  0.28614216     0.09400
C990        C  0.77925326  0.88733460  0.31999628    -0.12800
H991        H  0.74188047  0.88621928  0.35077456     0.13400
H992        H  0.73013061  0.90125682  0.23800697     0.13400
H993        H  0.78111930  0.89889043  0.23039638     0.13400
H994        H  0.79196652  0.88360286  0.34355036     0.13400
C995        C  0.65027813  0.99630446  0.44851420    -0.12800
C996        C  0.63455268  0.01223744  0.41921794     0.09400
C997        C  0.62649240  0.55756981  0.41744236    -0.12800
C998        C  0.63451308  0.58698005  0.44411634    -0.12800
C999        C  0.65151707  0.57165723  0.47248815     0.09400
C1000       C  0.65917616  0.52608177  0.47473980    -0.12800
H1001       H  0.65717691  0.96147193  0.45037221     0.13400
H1002       H  0.61448172  0.57042675  0.39495775     0.13400
H1003       H  0.62890278  0.62197847  0.44126337     0.13400
H1004       H  0.67558935  0.51067489  0.99633066     0.13400
C1005       C  0.62262593  0.74669661  0.43038367    -0.12800
C1006       C  0.63947990  0.78404137  0.42420710     0.09400
C1007       C  0.66164655  0.79250757  0.44777437    -0.12800
C1008       C  0.66846345  0.76218030  0.47485422    -0.12800
C1009       C  0.65359710  0.72210267  0.47883167     0.09400
C1010       C  0.62939782  0.71635572  0.45779990    -0.12800
H1011       H  0.60473703  0.74019278  0.41345270     0.13400
H1012       H  0.67439857  0.82201811  0.44473697     0.13400
H1013       H  0.68600412  0.76986135  0.49192875     0.13400
H1014       H  0.61610926  0.68785223  0.46133486     0.13400
C1015       C  0.61259292  0.52672599  0.22879661    -0.12700
C1016       C  0.61086856  0.56223710  0.21307215    -0.14300
C1017       C  0.60899830  0.72942501  0.21636450    -0.12700
C1018       C  0.61286787  0.76322953  0.23288551    -0.14300
C1019       C  0.51572977  0.88692928  0.33924953    -0.12700
C1020       C  0.49125867  0.87753620  0.34177936    -0.14300
O1021       O  0.61398283  0.80626577  0.87268098    -0.77900
C1022       C  0.54550167  0.89066872  0.83585331     0.83100
O1023       O  0.62818586  0.83681175  0.74439621    -0.79000
O1024       O  0.60135845  0.99104155  0.78273740    -0.80500
O1025       O  0.65012832  0.94887086  0.88593331    -0.80300
O1026       O  0.65185305  0.84308133  0.88915511    -0.78900
Zn1027     Zn  0.60143827  0.83978853  0.82800152     1.55700
O1028       O  0.60997247  0.98393829  0.87075697    -0.80300
Cd1029     Cd  0.65344497  0.89501469  0.85434967     1.59700
Cd1030     Cd  0.64011958  0.89455624  0.77112969     1.59600
O1031       O  0.69236985  0.89386529  0.83233729    -0.80300
O1032       O  0.62254910  0.89398486  0.81931183    -1.90800
Cd1033     Cd  0.59773130  0.94840562  0.82620102     1.59900
O1034       O  0.68421522  0.89273633  0.77446181    -0.80300
O1035       O  0.55600710  0.92960632  0.83294551    -0.78900
C1036       C  0.61563756  0.80187335  0.75550479     0.83600
C1037       C  0.63451572  0.81183325  0.89389109     0.83300
O1038       O  0.56043176  0.85489231  0.83407687    -0.77900
C1039       C  0.63163235  0.97938522  0.89067855     0.84100
O1040       O  0.60549752  0.79883974  0.78646130    -0.78000
C1041       C  0.70120017  0.89272797  0.80078014     0.84200
C1042       C  0.61415590  0.98867629  0.75329521     0.84500
O1043       O  0.62868002  0.95417413  0.74429879    -0.80400
C1044       C  0.60277042  0.68860535  0.69733718     0.87100
C1045       C  0.57116533  0.68120932  0.69273554    -0.53200
C1046       C  0.56506614  0.64258284  0.67554686     0.10000
C1047       C  0.59106481  0.61522894  0.66393469     0.20900
C1048       C  0.61396622  0.64569360  0.71604295    -0.53900
C1049       C  0.60758505  0.60721682  0.69861734     0.10100
C1050       C  0.61485259  0.68704520  0.66010512    -0.53400
C1051       C  0.60878646  0.64873608  0.64253160     0.10700
H1052       H  0.55507627  0.70337328  0.70357548     0.15200
H1053       H  0.58601697  0.58390173  0.64976918     0.00900
H1054       H  0.62450702  0.64561406  0.74161391     0.15500
H1055       H  0.62752093  0.71352480  0.64882985     0.15300
C1056       C  0.70233899  0.63830558  0.52981208     0.87100
C1057       C  0.69283635  0.59858399  0.00665071    -0.53200
C1058       C  0.66476869  0.60048215  0.99856255     0.10000
C1059       C  0.64908257  0.64100608  0.01463338     0.20900
C1060       C  0.69344909  0.67972139  0.00975346    -0.53900
C1061       C  0.66532678  0.68238960  0.00162134     0.10100
C1062       C  0.68291155  0.63618745  0.56218038    -0.53400
C1063       C  0.65499435  0.63875190  0.55389584     0.10700
H1064       H  0.70704862  0.57285174  0.99660383     0.15200
H1065       H  0.62617813  0.64212510  0.00889896     0.00900
H1066       H  0.70845889  0.70453466  0.00131377     0.15500
H1067       H  0.68983113  0.63309792  0.58941010     0.15300
O1068       O  0.91549810  0.72440238  0.61887389    -0.77900
C1069       C  0.97988479  0.62428530  0.58680284     0.83100
O1070       O  0.89796499  0.70108325  0.99344667    -0.79000
O1071       O  0.91768860  0.53741095  0.53407486    -0.80500
O1072       O  0.87632206  0.58837503  0.64170324    -0.80300
O1073       O  0.87315998  0.69716827  0.63009244    -0.78900
Zn1074     Zn  0.92800741  0.68664535  0.57661168     1.55700
O1075       O  0.91041899  0.54362081  0.62186484    -0.80300
Cd1076     Cd  0.87261347  0.63824533  0.60402800     1.59700
Cd1077     Cd  0.88507612  0.63902727  0.52037850     1.59600
O1078       O  0.83376267  0.63363811  0.58132687    -0.80300
O1079       O  0.90300063  0.63631636  0.56884937    -1.90800
Cd1080     Cd  0.92360266  0.57794001  0.57699904     1.59900
O1081       O  0.84099485  0.63992952  0.52352877    -0.80300
O1082       O  0.96605292  0.58841449  0.58366923    -0.78900
C1083       C  0.91360414  0.72936687  0.50356429     0.83600
C1084       C  0.89209158  0.72592396  0.63513972     0.83300
O1085       O  0.96821708  0.66323313  0.58487104    -0.77900
C1086       C  0.89173460  0.55315953  0.64467479     0.84100
O1087       O  0.92631580  0.72848134  0.53341842    -0.78000
C1088       C  0.82445073  0.63612032  0.54979448     0.84200
C1089       C  0.90697630  0.54322693  0.50339750     0.84500
O1090       O  0.89689534  0.58348021  0.99187398    -0.80400
C1091       C  0.92059788  0.93333403  0.94479891     0.87100
C1092       C  0.90773214  0.92813262  0.90801449    -0.53200
C1093       C  0.91631792  0.88985414  0.89150799     0.10000
C1094       C  0.93700467  0.86002188  0.91348682     0.20900
C1095       C  0.91318199  0.89020129  0.96518603    -0.53900
C1096       C  0.92187392  0.85168145  0.94882736     0.10100
C1097       C  0.95236714  0.93000610  0.93944997    -0.53400
C1098       C  0.96097581  0.89170689  0.92324563     0.10700
H1099       H  0.89308368  0.95245020  0.89608339     0.15200
H1100       H  0.94411986  0.82884698  0.90012377     0.00900
H1101       H  0.90273521  0.89018611  0.99060910     0.15500
H1102       H  0.96690841  0.95519362  0.94853961     0.15300
C1103       C  0.82285031  0.88613658  0.77981105     0.87100
C1104       C  0.83297519  0.92868642  0.76093781    -0.53200
C1105       C  0.86075054  0.92743222  0.75166735     0.10000
C1106       C  0.87612224  0.88345286  0.76282808     0.20900
C1107       C  0.83100120  0.84770612  0.75520715    -0.53900
C1108       C  0.85860055  0.84684677  0.74518525     0.10100
C1109       C  0.84292602  0.87998339  0.81161509    -0.53400
C1110       C  0.87061446  0.87846971  0.80272719     0.10700
H1111       H  0.81867423  0.95610415  0.75349243     0.15200
H1112       H  0.89879265  0.88258402  0.75617154     0.00900
H1113       H  0.81563944  0.82429630  0.74544535     0.15500
H1114       H  0.83659184  0.87774638  0.83896804     0.15300
O1115       O  0.46778784  0.64944286  0.68096950    -0.77900
C1116       C  0.39205460  0.70075695  0.62499593     0.83100
O1117       O  0.39909093  0.66864388  0.77001962    -0.79000
O1118       O  0.33588117  0.60879904  0.68087364    -0.80500
O1119       O  0.41743175  0.52191352  0.64230684    -0.80300
O1120       O  0.47148476  0.57459880  0.68207069    -0.78900
Zn1121     Zn  0.42705789  0.66565971  0.68679166     1.55700
O1122       O  0.37976747  0.56178216  0.62439646    -0.80300
Cd1123     Cd  0.42952659  0.55653119  0.68762664     1.59700
Cd1124     Cd  0.38748148  0.61089402  0.74285022     1.59600
O1125       O  0.42544506  0.51354017  0.73095340    -0.80300
O1126       O  0.40533212  0.61176313  0.69473800    -1.90800
Cd1127     Cd  0.37482540  0.61262784  0.65912658     1.59900
O1128       O  0.39896699  0.55120684  0.76981569    -0.80300
O1129       O  0.37427596  0.67002773  0.62947642    -0.78900
C1130       C  0.41242751  0.70311549  0.75951574     0.83600
C1131       C  0.48237599  0.61330016  0.67955038     0.83300
O1132       O  0.41455016  0.70219096  0.64336338    -0.77900
C1133       C  0.39710782  0.52925777  0.62062254     0.84100
O1134       O  0.42332808  0.70577262  0.72896345    -0.78000
C1135       C  0.41306630  0.51630685  0.76067277     0.84200
C1136       C  0.32668845  0.61065651  0.71224377     0.84500
O1137       O  0.34337758  0.61237228  0.73880596    -0.80400
C1138       C  0.42508988  0.81600812  0.81856794     0.87100
C1139       C  0.41239683  0.81721359  0.85547298    -0.53200
C1140       C  0.41838092  0.85509589  0.87364749     0.10000
C1141       C  0.43673357  0.88868607  0.85301607     0.20900
C1142       C  0.41449089  0.85943323  0.80000563    -0.53900
C1143       C  0.42081620  0.89759391  0.81793657     0.10100
C1144       C  0.45665741  0.82277825  0.82408128    -0.53400
C1145       C  0.46279040  0.86104294  0.84173834     0.10700
H1146       H  0.39935572  0.79077816  0.86609868     0.15200
H1147       H  0.44176454  0.91967838  0.86763090     0.00900
H1148       H  0.40429261  0.86004779  0.77421688     0.15500
H1149       H  0.47275480  0.80062466  0.81324252     0.15300
C1150       C  0.32255396  0.87057619  0.98356851     0.87100
C1151       C  0.33160861  0.83100293  0.50499467    -0.53200
C1152       C  0.35918051  0.82817346  0.51547400     0.10000
C1153       C  0.37698481  0.86668441  0.50058501     0.20900
C1154       C  0.33420042  0.91238589  0.50476505    -0.53900
C1155       C  0.36203563  0.90917161  0.51417499     0.10100
C1156       C  0.34255501  0.86870390  0.95180263    -0.53400
C1157       C  0.37028951  0.86504466  0.96105727     0.10700
H1158       H  0.31604557  0.80675305  0.51292106     0.15200
H1159       H  0.39965154  0.86447790  0.50768004     0.00900
H1160       H  0.32035858  0.93946260  0.51338797     0.15500
H1161       H  0.33610207  0.87064285  0.92433383     0.15300
O1162       O  0.11283524  0.96350759  0.89228140    -0.77900
C1163       C  0.04555797  0.87522744  0.92484620     0.83100
O1164       O  0.12737699  0.92986781  0.51907031    -0.79000
O1165       O  0.10485838  0.77617869  0.97555647    -0.80500
O1166       O  0.15328069  0.81279140  0.87923462    -0.80300
O1167       O  0.14846706  0.92148615  0.87259087    -0.78900
Zn1168     Zn  0.09958156  0.92837915  0.93534429     1.55700
O1169       O  0.11145002  0.78328169  0.88840127    -0.80300
Cd1170     Cd  0.15289147  0.87044266  0.90797620     1.59700
Cd1171     Cd  0.13985216  0.87332989  0.99131414     1.59600
O1172       O  0.19162781  0.87491156  0.93066253    -0.80300
O1173       O  0.12232090  0.87387274  0.94267970    -1.90800
Cd1174     Cd  0.09952332  0.81931080  0.93320313     1.59900
O1175       O  0.18391791  0.87578649  0.98850241    -0.80300
O1176       O  0.05765849  0.83686194  0.92733156    -0.78900
C1177       C  0.11299837  0.96448246  0.50893264     0.83600
C1178       C  0.13219127  0.95567093  0.86989251     0.83300
O1179       O  0.05891158  0.91180028  0.92710513    -0.77900
C1180       C  0.13491808  0.78366018  0.87242480     0.84100
O1181       O  0.10155963  0.96841433  0.97859875    -0.78000
C1182       C  0.20068397  0.87613461  0.96227017     0.84200
C1183       C  0.11806958  0.77772752  0.50587009     0.84500
O1184       O  0.13122073  0.81228444  0.51617645    -0.80400
C1185       C  0.10530198  0.66379902  0.56375585     0.87100
C1186       C  0.11854926  0.65950320  0.60042116    -0.53200
C1187       C  0.11004825  0.62292025  0.61908223     0.10000
C1188       C  0.08889082  0.59339712  0.59893027     0.20900
C1189       C  0.11230262  0.61933195  0.54536844    -0.53900
C1190       C  0.10364588  0.58223195  0.56364855     0.10100
C1191       C  0.07362984  0.66324038  0.56971939    -0.53400
C1192       C  0.06488718  0.62653420  0.58790206     0.10700
H1193       H  0.13335647  0.68344221  0.61084422     0.15200
H1194       H  0.08178815  0.56348418  0.61396039     0.00900
H1195       H  0.12247753  0.61743303  0.51981394     0.15500
H1196       H  0.05919553  0.68922740  0.55968294     0.15300
C1197       C  0.20474344  0.61794106  0.73103178     0.87100
C1198       C  0.19589502  0.66001865  0.75124975    -0.53200
C1199       C  0.16838226  0.66133331  0.76171679     0.10000
C1200       C  0.15144964  0.62127844  0.74797579     0.20900
C1201       C  0.19529370  0.57848472  0.75418758    -0.53900
C1202       C  0.16752044  0.58023258  0.76314283     0.10100
C1203       C  0.18461724  0.61752909  0.69900994    -0.53400
C1204       C  0.15686028  0.61890794  0.70788480     0.10700
H1205       H  0.21098202  0.68526231  0.75845822     0.15200
H1206       H  0.12880720  0.62210388  0.75483337     0.00900
H1207       H  0.20972953  0.55228229  0.76376198     0.15500
H1208       H  0.19103206  0.61508099  0.67171148     0.15300
C1209       C  0.12117409  0.61473933  0.65427804    -0.12700
C1210       C  0.13521862  0.61518847  0.68103481    -0.14300
C1211       C  0.12175452  0.73231604  0.82241722    -0.12800
C1212       C  0.14196570  0.74978708  0.84553647     0.09400
C1213       C  0.17019241  0.73666711  0.84174396    -0.12800
C1214       C  0.17835398  0.70776955  0.81503962    -0.12800
C1215       C  0.15865486  0.69182871  0.79045637     0.09400
C1216       C  0.13007785  0.70369110  0.79490373    -0.12800
H1217       H  0.09979076  0.74197816  0.82486977     0.13400
H1218       H  0.18614536  0.74880885  0.85964892     0.13400
H1219       H  0.20030226  0.69771419  0.81417757     0.13400
H1220       H  0.11426359  0.69170913  0.77681269     0.13400
C1221       C  0.15359135  0.97219750  0.81181126    -0.12800
C1222       C  0.13691335  0.98676032  0.84010215     0.09400
C1223       C  0.12820485  0.53096065  0.84033305    -0.12800
C1224       C  0.13654109  0.56127182  0.81409386    -0.12800
C1225       C  0.15515862  0.54730290  0.78756948     0.09400
C1226       C  0.16388686  0.50220680  0.78628909    -0.12800
H1227       H  0.16099543  0.93766276  0.81027557     0.13400
H1228       H  0.11490853  0.54280462  0.86150759     0.13400
H1229       H  0.12967258  0.59604866  0.81568643     0.13400
H1230       H  0.17774534  0.49045635  0.76564110     0.13400
C1231       C  0.11701034  0.73879447  0.52831784    -0.12700
C1232       C  0.11358034  0.70431981  0.54451001    -0.14300
C1233       C  0.10639205  0.53740972  0.54890078    -0.12700
C1234       C  0.10897800  0.50265833  0.53263650    -0.14300
C1235       C  0.27375725  0.87770310  0.50566738    -0.12800
C1236       C  0.29086695  0.87440614  0.97694976     0.09400
C1237       C  0.27878031  0.87573396  0.94293814    -0.12800
C1238       C  0.24960697  0.87708963  0.93851746    -0.12800
C1239       C  0.23157328  0.87713580  0.96784110     0.09400
C1240       C  0.24451017  0.87804638  0.50121752    -0.12800
H1241       H  0.28233662  0.87840036  0.53224644     0.13400
H1242       H  0.29136651  0.87522019  0.91940569     0.13400
H1243       H  0.24118837  0.87751725  0.91184719     0.13400
H1244       H  0.23126514  0.87917206  0.52434613     0.13400
C1245       C  0.40617077  0.86274135  0.90802455    -0.12700
C1246       C  0.39189981  0.86462825  0.93430691    -0.14300
C1247       C  0.27772204  0.61190899  0.68745514    -0.12800
C1248       C  0.29575552  0.61168835  0.71713924     0.09400
C1249       C  0.28386210  0.61363226  0.75086649    -0.12800
C1250       C  0.25463549  0.61574173  0.75470652    -0.12800
C1251       C  0.23646224  0.61592116  0.72500606     0.09400
C1252       C  0.24853982  0.61404461  0.69126460    -0.12800
H1253       H  0.28615321  0.61068988  0.66098078     0.13400
H1254       H  0.29709586  0.61369488  0.77427566     0.13400
H1255       H  0.24606434  0.61725185  0.78111116     0.13400
H1256       H  0.23592264  0.61429342  0.66750089     0.13400
C1257       C  0.40525809  0.75161498  0.57441400    -0.12800
C1258       C  0.38527147  0.73573972  0.59841651     0.09400
C1259       C  0.35743142  0.75147338  0.59580813    -0.12800
C1260       C  0.34938427  0.78187805  0.56939897    -0.12800
C1261       C  0.36878618  0.79646134  0.54402358     0.09400
C1262       C  0.39700559  0.78165638  0.54717295    -0.12800
H1263       H  0.42688139  0.73960970  0.57598300     0.13400
H1264       H  0.34177610  0.74021913  0.61441940     0.13400
H1265       H  0.32781394  0.79407998  0.56925274     0.13400
H1266       H  0.41251531  0.79241024  0.52826265     0.13400
C1267       C  0.39406630  0.92623486  0.56509701    -0.12800
C1268       C  0.37521623  0.94129871  0.53846864     0.09400
C1269       C  0.36691016  0.98666754  0.53720851    -0.12800
C1270       C  0.37526641  0.51482672  0.56216116    -0.12800
C1271       C  0.39242876  0.49943364  0.59037272     0.09400
C1272       C  0.40281899  0.95551993  0.59151052    -0.12800
H1273       H  0.40069457  0.89130013  0.56678824     0.13400
H1274       H  0.35296457  0.99942629  0.51651078     0.13400
H1275       H  0.36769213  0.54934191  0.56085228     0.13400
H1276       H  0.41612032  0.94269252  0.61283461     0.13400
C1277       C  0.41703436  0.94200754  0.80217165    -0.12700
C1278       C  0.41519459  0.97725904  0.78589453    -0.14300
C1279       C  0.41527709  0.74099945  0.78243296    -0.12700
C1280       C  0.41892667  0.77469169  0.79920911    -0.14300
C1281       C  0.01565069  0.87737223  0.92017753    -0.12700
C1282       C  0.99042613  0.88148950  0.91921577    -0.14300
C1283       C  0.90559178  0.87928411  0.85687906    -0.12700
C1284       C  0.89209845  0.87642751  0.82988720    -0.14300
C1285       C  0.89903161  0.47885706  0.67585058    -0.12800
C1286       C  0.88697717  0.52229618  0.67490408     0.09400
C1287       C  0.86866656  0.53518971  0.70209809    -0.12800
C1288       C  0.86257944  0.00635906  0.72816824    -0.12800
C1289       C  0.87294419  0.96189357  0.72788995     0.08600
C1290       C  0.89269394  0.94952938  0.70211858    -0.12800
H1291       H  0.91330915  0.46798654  0.65536618     0.13400
H1292       H  0.85936524  0.56865256  0.70251295     0.13400
H1293       H  0.84791097  0.01734436  0.74816482     0.13400
H1294       H  0.90093800  0.91548841  0.70086234     0.13400
C1295       C  0.85796935  0.77814400  0.66198689    -0.12800
C1296       C  0.88566803  0.76152265  0.66053971     0.09400
C1297       C  0.90540776  0.77549928  0.68567801    -0.12800
C1298       C  0.89691285  0.80377920  0.71321620    -0.12800
C1299       C  0.86868938  0.81853963  0.71559067     0.09400
C1300       C  0.84967221  0.80665665  0.68882386    -0.12800
H1301       H  0.84248135  0.76835616  0.64253504     0.13400
H1302       H  0.92689158  0.76280436  0.68504921     0.13400
H1303       H  0.91213999  0.81267165  0.73319977     0.13400
H1304       H  0.82814667  0.81910953  0.68851420     0.13400
C1305       C  0.91232295  0.97521710  0.96237420    -0.12700
C1306       C  0.91001009  0.50903279  0.97855438    -0.14300
C1307       C  0.91679734  0.77221021  0.98109062    -0.12700
C1308       C  0.91899442  0.80752336  0.96509287    -0.14300
C1309       C  0.00984082  0.62057316  0.59184635    -0.12700
C1310       C  0.03522132  0.61986042  0.59285905    -0.14300
C1311       C  0.74655625  0.63269984  0.56966418    -0.12800
C1312       C  0.73416156  0.63587053  0.53583887     0.09400
C1313       C  0.75254137  0.63785211  0.00556654    -0.12800
C1314       C  0.78139754  0.63737183  0.51049516    -0.12800
C1315       C  0.79353613  0.63499783  0.54437178     0.09400
C1316       C  0.77573169  0.63225521  0.57379019    -0.12800
H1317       H  0.73425351  0.63096824  0.59337461     0.13400
H1318       H  0.74356365  0.64018339  0.97920328     0.13400
H1319       H  0.79477477  0.64094395  0.98611346     0.13400
H1320       H  0.78432516  0.63021710  0.60035389     0.13400
C1321       C  0.53670410  0.62656160  0.67354845    -0.12700
C1322       C  0.51218825  0.61724909  0.67530657    -0.14300
C1323       C  0.63399821  0.63826825  0.58128356    -0.12700
C1324       C  0.62030566  0.64050872  0.60796388    -0.14300
C1325       C  0.75033202  0.88729237  0.82461762    -0.12800
C1326       C  0.73203615  0.89119011  0.79530936     0.09400
C1327       C  0.74358025  0.89365894  0.76138964    -0.12800
C1328       C  0.77276587  0.89230075  0.75700400    -0.12800
C1329       C  0.79120351  0.88806573  0.78632519     0.09400
C1330       C  0.77943904  0.88569918  0.82026165    -0.12800
H1331       H  0.74216732  0.88530012  0.85121078     0.13400
H1332       H  0.73010706  0.89678799  0.73826162     0.13400
H1333       H  0.78108430  0.89436448  0.73048194     0.13400
H1334       H  0.79219909  0.88270450  0.84382418     0.13400
C1335       C  0.65233519  0.99418237  0.94954870    -0.12800
C1336       C  0.63614232  0.00958738  0.92047039     0.09400
C1337       C  0.62429404  0.55184650  0.92197503    -0.12800
C1338       C  0.63252261  0.58144168  0.94833013    -0.12800
C1339       C  0.65186145  0.56755909  0.97470267     0.09400
C1340       C  0.66121912  0.52266453  0.97581148    -0.12800
H1341       H  0.65955664  0.95950907  0.95142523     0.13400
H1342       H  0.61052538  0.56395603  0.90085115     0.13400
H1343       H  0.62511242  0.61554992  0.94660872     0.13400
H1344       H  0.67200594  0.51329912  0.49653880     0.13400
C1345       C  0.62264505  0.74364752  0.93013192    -0.12800
C1346       C  0.63899311  0.78174597  0.92476411     0.09400
C1347       C  0.66053272  0.79085217  0.94908698    -0.12800
C1348       C  0.66744904  0.76029837  0.97595899    -0.12800
C1349       C  0.65327560  0.71948914  0.97899441     0.09400
C1350       C  0.62946347  0.71315087  0.95743053    -0.12800
H1351       H  0.60517149  0.73665711  0.91264923     0.13400
H1352       H  0.67278494  0.82099210  0.94674067     0.13400
H1353       H  0.68459970  0.76829233  0.99357635     0.13400
H1354       H  0.61657331  0.68424836  0.96052511     0.13400
C1355       C  0.61301523  0.52801713  0.73096030    -0.12700
C1356       C  0.61148878  0.56320608  0.71472293    -0.14300
C1357       C  0.60899660  0.73020198  0.71615149    -0.12700
C1358       C  0.61273110  0.76396065  0.73273936    -0.14300
C1359       C  0.51577475  0.88611947  0.84109051    -0.12700
C1360       C  0.49125234  0.87689876  0.84357845    -0.14300
loop_ 
_geom_bond_atom_site_label_1 
_geom_bond_atom_site_label_2 
_geom_bond_distance 
_geom_bond_site_symmetry_2 
_ccdc_geom_bond_type 
O1           C17   1.274       .  A
O1           Zn7   2.029       .  S
C2           O18   1.272       .  A
C2           O15   1.276       .  A
C2          C339   1.437       .  S
O3           C16   1.278       .  A
O3          Cd10   2.095       .  S
O4           C22   1.275       .  A
O4          Cd13   2.072       .  S
O5           C19   1.268       .  A
O5           Cd9   2.021       .  S
O6           C17   1.268       .  A
O6           Cd9   2.027       .  S
Zn7          O18   2.008       .  S
Zn7          O20   2.013       .  S
Zn7          O12   1.943       .  S
O8           C19   1.276       .  A
O8          Cd13   2.092       .  S
Cd9          O11   2.033       .  S
Cd9          O12   1.972       .  S
Cd10         O14   2.097       .  S
Cd10         O23   2.093       .  S
Cd10         O12   2.013       .  S
O11          C21   1.270       .  A
O12         Cd13   2.008       .  S
Cd13         O15   2.087       .  S
O14          C21   1.277       .  A
C16          O20   1.273       .  A
C16         C338   1.439       .  S
C17         C326   1.476       .  S
C19         C316   1.471       .  S
C21         C306   1.481       .  S
C22          O23   1.278       .  A
C22        C1015   1.440       .  S
C24          C25   1.532       .  S
C24          C30   1.527       .  S
C24          C28   1.538       .  S
C24         C337   1.472       .  S
C25          H32   1.087       .  S
C25          C26   1.364       .  D
C26          C27   1.537       .  S
C26         C301   1.441       .  S
C27          C31   1.542       .  S
C27          C29   1.536       .  S
C27          H33   1.112       .  S
C28          H34   1.086       .  S
C28          C29   1.368       .  D
C29         C336   1.445       .  S
C30          H35   1.087       .  S
C30          C31   1.363       .  D
C31         C304   1.441       .  S
C36          C42   1.543       .  S
C36         C377   1.531       .  S
C36         C380   1.531       .  S
C36         C292   1.528       .  S
C37         C376   1.531       .  S
C37          H44   1.086       .  S
C37          C38   1.366       .  D
C38          C39   1.539       .  S
C38         C319   1.479       .  S
C39          C41   1.546       .  S
C39         C383   1.538       .  S
C39          H45   1.108       .  S
C40         C376   1.531       .  S
C40          H46   1.084       .  S
C40          C41   1.371       .  D
C41         C329   1.494       .  S
C42          H47   1.082       .  S
C42          C43   1.362       .  D
C43         C379   1.535       .  S
C43         C303   1.442       .  S
O48          C64   1.276       .  A
O48         Zn54   2.050       .  S
C49          O65   1.277       .  A
C49          O62   1.271       .  A
C49         C289   1.436   1_655  S
O50         C403   1.279       .  A
O50        Cd397   2.102       .  S
O51          C69   1.273       .  A
O51         Cd60   2.055       .  S
O52          C66   1.272       .  A
O52         Cd56   2.053       .  S
O53          C64   1.269       .  A
O53         Cd56   2.024       .  S
Zn54         O65   2.041       .  S
Zn54         O67   2.043       .  S
Zn54         O59   1.954       .  S
O55          C66   1.274       .  A
O55         Cd60   2.076       .  S
Cd56         O58   2.035       .  S
Cd56         O59   1.972       .  S
Cd57         O61   2.101       .  S
Cd57        O390   2.105   1_554  S
Cd57        O410   2.097   1_554  S
Cd57         O59   2.017       .  S
O58          C68   1.271       .  A
O59         Cd60   1.996       .  S
Cd60         O62   2.059       .  S
O61          C68   1.278       .  A
C63          O67   1.277       .  A
C63         O390   1.279   1_554  A
C63         C627   1.451   1_554  S
C64         C276   1.469       .  S
C66         C266   1.480       .  S
C68         C295   1.483       .  S
C69         O410   1.279   1_554  A
C69         C626   1.436   1_554  S
O70         C409   1.278       .  A
O70        Cd397   2.096       .  S
C71          C72   1.527       .  S
C71          C77   1.527       .  S
C71          C75   1.538       .  S
C71         C285   1.469       .  S
C72          H79   1.087       .  S
C72          C73   1.364       .  D
C73          C74   1.545       .  S
C73         C263   1.444       .  S
C74          C78   1.541       .  S
C74          C76   1.544       .  S
C74          H80   1.111       .  S
C75          H81   1.086       .  S
C75          C76   1.369       .  D
C76         C288   1.455       .  S
C77          H82   1.087       .  S
C77          C78   1.359       .  D
C78         C262   1.438       .  S
C83          C84   1.534       .  S
C83          C89   1.538       .  S
C83          C87   1.531       .  S
C83         C309   1.526       .  S
C84          H91   1.086       .  S
C84          C85   1.369       .  D
C85          C86   1.542       .  S
C85         C269   1.486       .  S
C86          C90   1.541       .  S
C86          C88   1.541       .  S
C86          H92   1.109       .  S
C87          H93   1.086       .  S
C87          C88   1.368       .  D
C88         C279   1.486       .  S
C89          H94   1.082       .  S
C89          C90   1.361       .  D
C90         C264   1.444       .  S
O95         C111   1.271       .  A
O95        Zn101   2.002       .  S
C96         O112   1.273       .  A
C96         O109   1.269       .  A
C96         C238   1.469       .  S
O97         C110   1.278       .  A
O97        Cd104   2.095       .  S
O98         C116   1.270       .  A
O98        Cd107   2.037       .  S
O99         C113   1.276       .  A
O99        Cd103   2.093       .  S
O100        C111   1.276       .  A
O100       Cd103   2.088       .  S
Zn101       O112   2.037       .  S
Zn101       O114   2.012       .  S
Zn101       O106   1.948       .  S
O102        C113   1.270       .  A
O102       Cd107   2.027       .  S
Cd103       O105   2.078       .  S
Cd103       O106   2.012       .  S
Cd104       O108   2.100       .  S
Cd104       O117   2.103       .  S
Cd104       O106   2.016       .  S
O105        C115   1.276       .  A
O106       Cd107   1.971       .  S
Cd107       O109   2.034       .  S
O108        C115   1.279       .  A
C110        O114   1.273       .  A
C110        C259   1.439       .  S
C111        C302   1.435       .  S
C113        C251   1.475   1_545  S
C115        C938   1.444   1_545  S
C116        O117   1.278       .  A
C116        C228   1.484       .  S
C118        C119   1.526       .  S
C118        C124   1.531       .  S
C118        C122   1.539       .  S
C118        C260   1.473       .  S
C119        H126   1.087       .  S
C119        C120   1.362       .  D
C120        C121   1.547       .  S
C120        C225   1.446       .  S
C121        C125   1.540       .  S
C121        C123   1.540       .  S
C121        H127   1.111       .  S
C122        H128   1.086       .  S
C122        C123   1.368       .  D
C123        C257   1.451       .  S
C124        H129   1.087       .  S
C124        C125   1.364       .  D
C125        C340   1.443       .  S
C130        C136   1.540       .  S
C130        C471   1.530       .  S
C130        C474   1.536       .  S
C130        C216   1.529       .  S
C131        C470   1.530   1_554  S
C131        H138   1.085       .  S
C131        C132   1.368       .  D
C132        C133   1.544       .  S
C132        C241   1.491       .  S
C133        C135   1.534       .  S
C133        C477   1.542   1_554  S
C133        H139   1.109       .  S
C134        C470   1.534   1_554  S
C134        H140   1.086       .  S
C134        C135   1.368       .  D
C135        C248   1.477       .  S
C136        H141   1.082       .  S
C136        C137   1.364       .  D
C137        C473   1.542       .  S
C137        C226   1.447       .  S
O142        C158   1.276       .  A
O142       Zn148   2.036       .  S
C143        O159   1.275       .  A
C143        O156   1.271       .  A
C143        C261   1.433       .  S
O144        C157   1.280       .  A
O144       Cd491   2.110   1_554  S
O145        C503   1.273       .  A
O145       Cd154   2.053       .  S
O146        C160   1.270       .  A
O146       Cd150   2.043       .  S
O147        C158   1.270       .  A
O147       Cd150   2.021       .  S
Zn148       O159   2.032       .  S
Zn148       O161   2.039       .  S
Zn148       O153   1.950       .  S
O149        C160   1.273       .  A
O149       Cd154   2.090       .  S
Cd150       O152   2.040       .  S
Cd150       O153   1.970       .  S
Cd151       O155   2.102       .  S
Cd151       O484   2.108       .  S
Cd151       O504   2.088       .  S
Cd151       O153   2.014       .  S
O152        C162   1.270       .  A
O153       Cd154   2.005       .  S
Cd154       O156   2.057       .  S
O155        C162   1.278       .  A
C157        O501   1.276   1_554  A
C157        C894   1.453       .  S
C158        C202   1.471       .  S
C160        C192   1.474       .  S
O161        C497   1.276       .  A
C162        C219   1.485       .  S
C163        O164   1.279       .  A
C163        O485   1.273   1_554  A
C163        C211   1.432       .  S
O164       Cd491   2.091   1_554  S
C165        C166   1.523       .  S
C165        C171   1.524       .  S
C165        C169   1.536       .  S
C165        C212   1.465       .  S
C166        H173   1.087       .  S
C166        C167   1.362       .  D
C167        C168   1.551       .  S
C167        C189   1.446       .  S
C168        C172   1.546       .  S
C168        C170   1.550       .  S
C168        H174   1.111       .  S
C169        H175   1.086       .  S
C169        C170   1.369       .  D
C170        C213   1.459       .  S
C171        H176   1.088       .  S
C171        C172   1.358       .  D
C172        C290   1.441       .  S
C177        C178   1.531       .  S
C177        C183   1.540       .  S
C177        C181   1.534       .  S
C177        C231   1.528       .  S
C178        H185   1.086       .  S
C178        C179   1.369       .  D
C179        C180   1.544       .  S
C179        C195   1.492       .  S
C180        C184   1.542       .  S
C180        C182   1.532       .  S
C180        H186   1.110       .  S
C181        H187   1.086       .  S
C181        C182   1.367       .  D
C182        C205   1.473       .  S
C183        H188   1.082       .  S
C183        C184   1.364       .  D
C184        C190   1.447       .  S
C189        C190   1.209       .  T
C191        C192   1.406       .  A
C191        C196   1.407       .  A
C191        H197   1.083       .  S
C192        C193   1.399       .  A
C193        C194   1.388       .  A
C193        H198   1.084       .  S
C194        C195   1.407       .  A
C194        H199   1.082       .  S
C195        C196   1.408       .  A
C196        H200   1.082       .  S
C201        C202   1.405       .  A
C201        C886   1.388       .  A
C201        H207   1.083       .  S
C202        C883   1.404       .  A
C203        C204   1.399       .  A
C203        C882   1.404   1_545  A
C203        H208   1.083       .  S
C204        C205   1.405       .  A
C204        H209   1.083       .  S
C205        C206   1.399       .  A
C206        C881   1.388   1_545  A
C206        H210   1.083   1_545  S
C211        C212   1.205       .  T
C213        C214   1.216       .  T
C214        C837   1.453   1_545  S
C215        C220   1.399       .  A
C215        C556   1.413   1_554  A
C215        H221   1.083       .  S
C216        C217   1.407       .  A
C216        C555   1.412       .  A
C217        C218   1.397       .  A
C217        H222   1.077       .  S
C218        C219   1.408       .  A
C218        H223   1.083       .  S
C219        C560   1.402       .  A
C220        C559   1.402   1_554  A
C220        H224   1.083       .  S
C225        C226   1.209       .  T
C227        C228   1.408       .  A
C227        C232   1.396       .  A
C227        H233   1.083       .  S
C228        C229   1.402       .  A
C229        C230   1.400       .  A
C229        H234   1.083       .  S
C230        C231   1.413       .  A
C230        H235   1.083       .  S
C231        C232   1.406       .  A
C232        H236   1.077       .  S
C237        C238   1.404       .  A
C237        C242   1.405       .  A
C237        H243   1.083       .  S
C238        C239   1.398       .  A
C239        C240   1.387       .  A
C239        H244   1.084       .  S
C240        C241   1.408       .  A
C240        H245   1.081       .  S
C241        C242   1.408       .  A
C242        H246   1.082       .  S
C247        C248   1.407       .  A
C247        C252   1.402       .  A
C247        H253   1.083       .  S
C248        C249   1.400       .  A
C249        C930   1.389       .  A
C249        H254   1.083       .  S
C250        C251   1.405   1_545  A
C250        C929   1.389   1_545  A
C250        H255   1.083       .  S
C251        C932   1.404       .  A
C252        C931   1.404       .  A
C252        H256   1.083       .  S
C257        C258   1.212       .  T
C258        C795   1.445       .  S
C259        C260   1.208       .  T
C261        C262   1.204   1_455  T
C263        C264   1.208       .  T
C265        C266   1.405   1_565  A
C265        C950   1.399       .  A
C265        H271   1.083       .  S
C266        C267   1.406       .  A
C267        C948   1.395       .  A
C267        H272   1.083       .  S
C268        C269   1.405       .  A
C268        C947   1.395       .  A
C268        H273   1.083       .  S
C269        C270   1.406       .  A
C270        C945   1.398       .  A
C270        H274   1.082       .  S
C275        C276   1.400       .  A
C275        C280   1.387       .  A
C275        H281   1.084       .  S
C276        C277   1.404       .  A
C277        C278   1.404       .  A
C277        H282   1.083       .  S
C278        C279   1.407       .  A
C278        H283   1.082       .  S
C279        C280   1.406       .  A
C280        H284   1.082       .  S
C285        C966   1.206       .  T
C286        C409   1.436       .  S
C286        C965   1.207   1_545  T
C287        C403   1.449       .  S
C287        C288   1.214       .  T
C289        C290   1.206       .  T
C291        C292   1.406       .  A
C291        C296   1.394       .  A
C291        H297   1.076       .  S
C292        C633   1.413       .  A
C293        C632   1.413       .  A
C293        C634   1.401       .  A
C293        H298   1.083       .  S
C294        C295   1.402       .  A
C294        C633   1.400       .  A
C294        H639   1.083   1_554  S
C295        C296   1.406       .  A
C296        H300   1.083       .  S
H299        C634   1.083       .  S
C301        C302   1.206       .  T
C303        C304   1.206       .  T
C305        C306   1.406       .  A
C305        C310   1.394       .  A
C305        H311   1.083       .  S
C306        C307   1.402       .  A
C307        C308   1.399       .  A
C307        H312   1.083       .  S
C308        C309   1.412       .  A
C308        H313   1.083       .  S
C309        C310   1.406       .  A
C310        H314   1.077       .  S
C315        C316   1.405       .  A
C315       C1000   1.390       .  A
C315        H321   1.083       .  S
C316        C997   1.401       .  A
C317        C318   1.401       .  A
C317        C996   1.401       .  A
C317        H322   1.083       .  S
C318        C319   1.406       .  A
C318        H323   1.075       .  S
C319        C320   1.400       .  A
C320        C995   1.390   1_545  A
C320        H664   1.083       .  S
H324        C660   1.083       .  S
C325        C326   1.402       .  A
C325        C330   1.398       .  A
C325        H331   1.083       .  S
C326        C327   1.404       .  A
C327        C328   1.391       .  A
C327        H332   1.083       .  S
C328        C329   1.407       .  A
C328        H333   1.081       .  S
C329        C330   1.408       .  A
C330        H334   1.076       .  S
C335        C702   1.439   1_545  S
C335        C336   1.208       .  T
C337        C338   1.208       .  T
C339        C340   1.207       .  T
O341        C357   1.274       .  A
O341       Zn347   2.033       .  S
C342        O358   1.272       .  A
C342        O355   1.275       .  A
C342        C679   1.436       .  S
O343        C356   1.278       .  A
O343       Cd350   2.092       .  S
O344        C362   1.276       .  A
O344       Cd353   2.077       .  S
O345        C359   1.268       .  A
O345       Cd349   2.017       .  S
O346        C357   1.267       .  A
O346       Cd349   2.017       .  S
Zn347       O358   2.007       .  S
Zn347       O360   2.012       .  S
Zn347       O352   1.943       .  S
O348        C359   1.276       .  A
O348       Cd353   2.089       .  S
Cd349       O351   2.033       .  S
Cd349       O352   1.970       .  S
Cd350       O354   2.098       .  S
Cd350       O363   2.094       .  S
Cd350       O352   2.010       .  S
O351        C361   1.269       .  A
O352       Cd353   2.006       .  S
Cd353       O355   2.085       .  S
O354        C361   1.277       .  A
C356        O360   1.274       .  A
C356        C678   1.438       .  S
C357        C666   1.474       .  S
C359        C656   1.470       .  S
C361        C646   1.482       .  S
C362        O363   1.278       .  A
C362       C1355   1.441       .  S
C364        C365   1.531       .  S
C364        C370   1.527       .  S
C364        C368   1.538       .  S
C364        C677   1.471       .  S
C365        H372   1.087       .  S
C365        C366   1.363       .  D
C366        C367   1.539       .  S
C366        C641   1.442       .  S
C367        C371   1.546       .  S
C367        C369   1.538       .  S
C367        H373   1.111       .  S
C368        H374   1.086       .  S
C368        C369   1.368       .  D
C369        C676   1.448       .  S
C370        H375   1.087       .  S
C370        C371   1.363       .  D
C371        C644   1.445       .  S
C376        C382   1.543       .  S
C376        C632   1.530       .  S
C377        H384   1.086   1_554  S
C377        C378   1.366   1_554  D
C378        C379   1.539   1_556  S
C378        C659   1.476       .  S
C379        C381   1.543       .  S
C379        H385   1.109       .  S
C380        H386   1.085       .  S
C380        C381   1.371       .  D
C381        C669   1.491   1_554  S
C382        H387   1.082       .  S
C382        C383   1.363       .  D
C383        C643   1.446       .  S
O388        C404   1.277       .  A
O388       Zn394   2.055       .  S
C389        O405   1.278       .  A
C389        O402   1.271       .  A
C389        C629   1.438   1_655  S
O391        C409   1.273       .  A
O391       Cd400   2.057       .  S
O392        C406   1.271       .  A
O392       Cd396   2.048       .  S
O393        C404   1.269       .  A
O393       Cd396   2.025       .  S
Zn394       O405   2.046       .  S
Zn394       O407   2.042       .  S
Zn394       O399   1.955       .  S
O395        C406   1.274       .  A
O395       Cd400   2.076       .  S
Cd396       O398   2.038       .  S
Cd396       O399   1.971       .  S
Cd397       O401   2.104       .  S
Cd397       O399   2.017       .  S
O398        C408   1.270       .  A
O399       Cd400   1.998       .  S
Cd400       O402   2.060       .  S
O401        C408   1.278       .  A
C403        O407   1.277       .  A
C404        C616   1.470       .  S
C406        C606   1.479       .  S
C408        C635   1.485       .  S
C411        C412   1.528       .  S
C411        C417   1.527       .  S
C411        C415   1.539       .  S
C411        C625   1.471       .  S
C412        H419   1.087       .  S
C412        C413   1.365       .  D
C413        C414   1.545       .  S
C413        C603   1.445       .  S
C414        C418   1.541       .  S
C414        C416   1.544       .  S
C414        H420   1.111       .  S
C415        H421   1.086       .  S
C415        C416   1.369       .  D
C416        C628   1.456       .  S
C417        H422   1.087       .  S
C417        C418   1.360       .  D
C418        C602   1.438       .  S
C423        C424   1.535       .  S
C423        C429   1.538       .  S
C423        C427   1.531       .  S
C423        C649   1.527       .  S
C424        H431   1.086       .  S
C424        C425   1.369       .  D
C425        C426   1.541       .  S
C425        C609   1.487       .  S
C426        C430   1.542       .  S
C426        C428   1.541       .  S
C426        H432   1.109       .  S
C427        H433   1.086       .  S
C427        C428   1.368       .  D
C428        C619   1.487       .  S
C429        H434   1.082       .  S
C429        C430   1.362       .  D
C430        C604   1.446       .  S
O435        C451   1.272       .  A
O435       Zn441   2.004       .  S
C436        O452   1.273       .  A
C436        O449   1.269       .  A
C436        C578   1.472       .  S
O437        C450   1.279       .  A
O437       Cd444   2.096       .  S
O438        C456   1.269       .  A
O438       Cd447   2.032       .  S
O439        C453   1.277       .  A
O439       Cd443   2.095       .  S
O440        C451   1.276       .  A
O440       Cd443   2.088       .  S
Zn441       O452   2.043       .  S
Zn441       O454   2.011       .  S
Zn441       O446   1.948       .  S
O442        C453   1.270       .  A
O442       Cd447   2.026       .  S
Cd443       O445   2.083       .  S
Cd443       O446   2.011       .  S
Cd444       O448   2.103       .  S
Cd444       O457   2.103       .  S
Cd444       O446   2.016       .  S
O445        C455   1.277       .  A
O446       Cd447   1.970       .  S
Cd447       O449   2.034       .  S
O448        C455   1.279       .  A
C450        O454   1.273       .  A
C450        C599   1.439       .  S
C451        C642   1.436       .  S
C453        C591   1.476       .  S
C455       C1278   1.447   1_545  S
C456        O457   1.278       .  A
C456        C568   1.483       .  S
C458        C459   1.526       .  S
C458        C464   1.531       .  S
C458        C462   1.539       .  S
C458        C600   1.472       .  S
C459        H466   1.087       .  S
C459        C460   1.362       .  D
C460        C461   1.547       .  S
C460        C565   1.446       .  S
C461        C465   1.539       .  S
C461        C463   1.540       .  S
C461        H467   1.111       .  S
C462        H468   1.086       .  S
C462        C463   1.368       .  D
C463        C597   1.451       .  S
C464        H469   1.087       .  S
C464        C465   1.363       .  D
C465        C680   1.442       .  S
C470        C476   1.539       .  S
C470        C556   1.527       .  S
C471        H478   1.085       .  S
C471        C472   1.368       .  D
C472        C473   1.544       .  S
C472        C581   1.493       .  S
C473        C475   1.536       .  S
C473        H479   1.109       .  S
C474        H480   1.086       .  S
C474        C475   1.369       .  D
C475        C588   1.481       .  S
C476        H481   1.082       .  S
C476        C477   1.363       .  D
C477        C566   1.446       .  S
O482        C498   1.276       .  A
O482       Zn488   2.038       .  S
C483        O499   1.275       .  A
C483        O496   1.272       .  A
C483        C601   1.433       .  S
O484        C497   1.279       .  A
O485       Cd494   2.056       .  S
O486        C500   1.270       .  A
O486       Cd490   2.043       .  S
O487        C498   1.269       .  A
O487       Cd490   2.020       .  S
Zn488       O499   2.031       .  S
Zn488       O501   2.041       .  S
Zn488       O493   1.949       .  S
O489        C500   1.273       .  A
O489       Cd494   2.093       .  S
Cd490       O492   2.032       .  S
Cd490       O493   1.969       .  S
Cd491       O495   2.103       .  S
Cd491       O493   2.016       .  S
O492        C502   1.269       .  A
O493       Cd494   2.005       .  S
Cd494       O496   2.058       .  S
O495        C502   1.278       .  A
C497       C1234   1.452       .  S
C498        C542   1.472       .  S
C500        C532   1.477       .  S
C502        C559   1.483       .  S
C503        O504   1.278       .  A
C503        C551   1.431       .  S
C505        C506   1.523       .  S
C505        C511   1.524       .  S
C505        C509   1.536       .  S
C505        C552   1.464       .  S
C506        H513   1.087       .  S
C506        C507   1.362       .  D
C507        C508   1.552       .  S
C507        C529   1.447       .  S
C508        C512   1.546       .  S
C508        C510   1.551       .  S
C508        H514   1.111       .  S
C509        H515   1.086       .  S
C509        C510   1.369       .  D
C510        C553   1.458       .  S
C511        H516   1.088       .  S
C511        C512   1.358       .  D
C512        C630   1.442       .  S
C517        C518   1.530       .  S
C517        C523   1.539       .  S
C517        C521   1.533       .  S
C517        C571   1.526       .  S
C518        H525   1.085       .  S
C518        C519   1.370       .  D
C519        C520   1.546       .  S
C519        C535   1.496       .  S
C520        C524   1.544       .  S
C520        C522   1.532       .  S
C520        H526   1.109       .  S
C521        H527   1.086       .  S
C521        C522   1.366       .  D
C522        C545   1.473       .  S
C523        H528   1.083       .  S
C523        C524   1.364       .  D
C524        C530   1.448       .  S
C529        C530   1.210       .  T
C531        C532   1.406       .  A
C531        C536   1.408       .  A
C531        H537   1.083       .  S
C532        C533   1.399       .  A
C533        C534   1.388       .  A
C533        H538   1.084       .  S
C534        C535   1.409       .  A
C534        H539   1.081       .  S
C535        C536   1.409       .  A
C536        H540   1.082       .  S
C541        C542   1.406       .  A
C541       C1226   1.388       .  A
C541        H547   1.083       .  S
C542       C1223   1.404       .  A
C543       C1222   1.404   1_545  A
C543        C544   1.400       .  A
C543        H548   1.083       .  S
C544        C545   1.405       .  A
C544        H549   1.083       .  S
C545        C546   1.400       .  A
C546       C1221   1.388   1_545  A
C546        H550   1.083   1_545  S
C551        C552   1.204       .  T
C553        C554   1.216       .  T
C554       C1177   1.453   1_545  S
C555        C560   1.400       .  A
C555        H561   1.083       .  S
C556        C557   1.405       .  A
C557        C558   1.395       .  A
C557        H562   1.077       .  S
C558        C559   1.408       .  A
C558        H563   1.083       .  S
C560        H564   1.083       .  S
C565        C566   1.209       .  T
C567        C568   1.408       .  A
C567        C572   1.395       .  A
C567        H573   1.083       .  S
C568        C569   1.401       .  A
C569        C570   1.399       .  A
C569        H574   1.083       .  S
C570        C571   1.413       .  A
C570        H575   1.083       .  S
C571        C572   1.405       .  A
C572        H576   1.077       .  S
C577        C578   1.404       .  A
C577        C582   1.406       .  A
C577        H583   1.083       .  S
C578        C579   1.399       .  A
C579        C580   1.388       .  A
C579        H584   1.084       .  S
C580        C581   1.408       .  A
C580        H585   1.081       .  S
C581        C582   1.409       .  A
C582        H586   1.082       .  S
C587        C588   1.407       .  A
C587        C592   1.401       .  A
C587        H593   1.082       .  S
C588        C589   1.401       .  A
C589       C1270   1.391       .  A
C589        H594   1.083       .  S
C590       C1269   1.390   1_545  A
C590        C591   1.406       .  A
C590        H595   1.083       .  S
C591       C1272   1.404   1_545  A
C592       C1271   1.404       .  A
C592        H596   1.083       .  S
C597        C598   1.212       .  T
C598       C1135   1.445       .  S
C599        C600   1.208       .  T
C601        C602   1.204   1_455  T
C603        C604   1.208       .  T
C605        C606   1.405   1_565  A
C605       C1290   1.399       .  A
C605        H611   1.083       .  S
C606        C607   1.405       .  A
C607       C1288   1.394       .  A
C607        H612   1.083       .  S
C608       C1287   1.395       .  A
C608        C609   1.405       .  A
C608        H613   1.083       .  S
C609        C610   1.407       .  A
C610       C1285   1.400       .  A
C610        H614   1.082       .  S
C615        C616   1.400       .  A
C615        C620   1.388       .  A
C615        H621   1.084       .  S
C616        C617   1.404       .  A
C617        C618   1.405       .  A
C617        H622   1.083       .  S
C618        C619   1.407       .  A
C618        H623   1.082       .  S
C619        C620   1.406       .  A
C620        H624   1.082       .  S
C625       C1306   1.208       .  T
C626       C1305   1.207   1_545  T
C627        C628   1.215       .  T
C629        C630   1.207       .  T
C631        C632   1.406       .  A
C631        C636   1.395       .  A
C631        H637   1.076       .  S
C633        H638   1.083   1_554  S
C634        C635   1.403       .  A
C635        C636   1.407       .  A
C636        H640   1.083       .  S
C641        C642   1.206       .  T
C643        C644   1.208       .  T
C645        C646   1.407       .  A
C645        C650   1.395       .  A
C645        H651   1.083       .  S
C646        C647   1.402       .  A
C647        C648   1.399       .  A
C647        H652   1.083       .  S
C648        C649   1.412       .  A
C648        H653   1.083       .  S
C649        C650   1.407       .  A
C650        H654   1.077       .  S
C655        C656   1.406       .  A
C655       C1340   1.390       .  A
C655        H661   1.083       .  S
C656       C1337   1.400       .  A
C657       C1336   1.400       .  A
C657        C658   1.397       .  A
C657        H662   1.083       .  S
C658        C659   1.404       .  A
C658        H663   1.074       .  S
C659        C660   1.401       .  A
C660       C1335   1.391   1_545  A
C665        C666   1.402       .  A
C665        C670   1.399       .  A
C665        H671   1.083       .  S
C666        C667   1.404       .  A
C667        C668   1.389       .  A
C667        H672   1.083       .  S
C668        C669   1.405       .  A
C668        H673   1.081       .  S
C669        C670   1.408       .  A
C670        H674   1.076       .  S
C675       C1042   1.442   1_545  S
C675        C676   1.210       .  T
C677        C678   1.208       .  T
C679        C680   1.206       .  T
O681        C697   1.274       .  A
O681       Zn687   2.032       .  S
C682        O698   1.272       .  A
C682        O695   1.276       .  A
C682       C1019   1.436       .  S
O683        C696   1.278       .  A
O683       Cd690   2.095       .  S
O684        C702   1.275       .  A
O684       Cd693   2.072       .  S
O685        C699   1.268       .  A
O685       Cd689   2.020       .  S
O686        C697   1.268       .  A
O686       Cd689   2.025       .  S
Zn687       O698   2.006       .  S
Zn687       O700   2.012       .  S
Zn687       O692   1.943       .  S
O688        C699   1.276       .  A
O688       Cd693   2.093       .  S
Cd689       O691   2.037       .  S
Cd689       O692   1.972       .  S
Cd690       O694   2.098       .  S
Cd690       O703   2.093       .  S
Cd690       O692   2.012       .  S
O691        C701   1.270       .  A
O692       Cd693   2.009       .  S
Cd693       O695   2.086       .  S
O694        C701   1.278       .  A
C696        O700   1.273       .  A
C696       C1018   1.439       .  S
C697       C1006   1.476       .  S
C699        C996   1.471   1_565  S
C701        C986   1.482       .  S
C702        O703   1.278       .  A
C704        C705   1.532       .  S
C704        C710   1.527       .  S
C704        C708   1.538       .  S
C704       C1017   1.472       .  S
C705        H712   1.087       .  S
C705        C706   1.364       .  D
C706        C707   1.538       .  S
C706        C981   1.442       .  S
C707        C711   1.544       .  S
C707        C709   1.537       .  S
C707        H713   1.111       .  S
C708        H714   1.086       .  S
C708        C709   1.368       .  D
C709       C1016   1.446       .  S
C710        H715   1.087       .  S
C710        C711   1.362       .  D
C711        C984   1.443       .  S
C716       C1057   1.529       .  S
C716        C722   1.543       .  S
C716       C1060   1.530       .  S
C716        C972   1.528       .  S
C717       C1056   1.530       .  S
C717        H724   1.086       .  S
C717        C718   1.366       .  D
C718        C719   1.540       .  S
C718        C999   1.479       .  S
C719       C1063   1.539       .  S
C719        C721   1.546       .  S
C719        H725   1.108       .  S
C720       C1056   1.531       .  S
C720        H726   1.084       .  S
C720        C721   1.372       .  D
C721       C1009   1.494       .  S
C722        H727   1.082       .  S
C722        C723   1.363       .  D
C723       C1059   1.536       .  S
C723        C983   1.443       .  S
O728        C744   1.276       .  A
O728       Zn734   2.052       .  S
C729        O745   1.277       .  A
C729        O742   1.271       .  A
C729        C969   1.436   1_655  S
O730       C1083   1.279       .  A
O730      Cd1077   2.104       .  S
O731        C749   1.273       .  A
O731       Cd740   2.057       .  S
O732        C746   1.272       .  A
O732       Cd736   2.053       .  S
O733        C744   1.270       .  A
O733       Cd736   2.027       .  S
Zn734       O745   2.043       .  S
Zn734       O747   2.042       .  S
Zn734       O739   1.953       .  S
O735        C746   1.274       .  A
O735       Cd740   2.073       .  S
Cd736       O738   2.035       .  S
Cd736       O739   1.971       .  S
Cd737      O1070   2.103   1_554  S
Cd737       O741   2.102       .  S
Cd737      O1090   2.098   1_554  S
Cd737       O739   2.016       .  S
O738        C748   1.270       .  A
O739       Cd740   1.996       .  S
Cd740       O742   2.057       .  S
O741        C748   1.278       .  A
C743       O1070   1.279   1_554  A
C743        O747   1.277       .  A
C743       C1307   1.449   1_554  S
C744        C956   1.470       .  S
C746        C946   1.479       .  S
C748        C975   1.483       .  S
C749       O1090   1.279   1_554  A
C749       C1306   1.437   1_554  S
O750       C1089   1.278       .  A
O750      Cd1077   2.093       .  S
C751        C752   1.527       .  S
C751        C757   1.526       .  S
C751        C755   1.538       .  S
C751        C965   1.470       .  S
C752        H759   1.087       .  S
C752        C753   1.364       .  D
C753        C754   1.546       .  S
C753        C943   1.445       .  S
C754        C758   1.542       .  S
C754        C756   1.545       .  S
C754        H760   1.111       .  S
C755        H761   1.086       .  S
C755        C756   1.369       .  D
C756        C968   1.456       .  S
C757        H762   1.087       .  S
C757        C758   1.359       .  D
C758        C942   1.438       .  S
C763        C764   1.535       .  S
C763        C769   1.538       .  S
C763        C767   1.532       .  S
C763        C989   1.527       .  S
C764        H771   1.086       .  S
C764        C765   1.369       .  D
C765        C766   1.542       .  S
C765        C949   1.487       .  S
C766        C770   1.542       .  S
C766        C768   1.540       .  S
C766        H772   1.109       .  S
C767        H773   1.086       .  S
C767        C768   1.368       .  D
C768        C959   1.486       .  S
C769        H774   1.082       .  S
C769        C770   1.362       .  D
C770        C944   1.446       .  S
O775        C791   1.271       .  A
O775       Zn781   2.004       .  S
C776        O792   1.273       .  A
C776        O789   1.269       .  A
C776        C918   1.471       .  S
O777        C790   1.279       .  A
O777       Cd784   2.098       .  S
O778        C796   1.270       .  A
O778       Cd787   2.034       .  S
O779        C793   1.276       .  A
O779       Cd783   2.092       .  S
O780        C791   1.276       .  A
O780       Cd783   2.088       .  S
Zn781       O792   2.040       .  S
Zn781       O794   2.010       .  S
Zn781       O786   1.947       .  S
O782        C793   1.270       .  A
O782       Cd787   2.024       .  S
Cd783       O785   2.079       .  S
Cd783       O786   2.012       .  S
Cd784       O788   2.103       .  S
Cd784       O797   2.105       .  S
Cd784       O786   2.017       .  S
O785        C795   1.276       .  A
O786       Cd787   1.970       .  S
Cd787       O789   2.035       .  S
O788        C795   1.279       .  A
C790        O794   1.273       .  A
C790        C939   1.439       .  S
C791        C982   1.436       .  S
C793        C931   1.474       .  S
C796        O797   1.279       .  A
C796        C908   1.484       .  S
C798        C799   1.526       .  S
C798        C804   1.532       .  S
C798        C802   1.539       .  S
C798        C940   1.473       .  S
C799        H806   1.087       .  S
C799        C800   1.362       .  D
C800        C801   1.546       .  S
C800        C905   1.445       .  S
C801        C805   1.539       .  S
C801        C803   1.539       .  S
C801        H807   1.111       .  S
C802        H808   1.086       .  S
C802        C803   1.369       .  D
C803        C937   1.450       .  S
C804        H809   1.087       .  S
C804        C805   1.364       .  D
C805       C1020   1.442       .  S
C810       C1151   1.529       .  S
C810        C816   1.539       .  S
C810       C1154   1.536       .  S
C810        C896   1.528       .  S
C811       C1150   1.530   1_554  S
C811        H818   1.085       .  S
C811        C812   1.368       .  D
C812        C813   1.545       .  S
C812        C921   1.493       .  S
C813       C1157   1.543   1_554  S
C813        C815   1.535       .  S
C813        H819   1.109       .  S
C814       C1150   1.534   1_554  S
C814        H820   1.086       .  S
C814        C815   1.368       .  D
C815        C928   1.479       .  S
C816        H821   1.082       .  S
C816        C817   1.363       .  D
C817       C1153   1.542       .  S
C817        C906   1.446       .  S
O822        C838   1.276       .  A
O822       Zn828   2.038       .  S
C823        O839   1.276       .  A
C823        O836   1.271       .  A
C823        C941   1.433       .  S
O824        C837   1.279       .  A
O824      Cd1171   2.111   1_554  S
O825       C1183   1.273       .  A
O825       Cd834   2.052       .  S
O826        C840   1.270       .  A
O826       Cd830   2.043       .  S
O827        C838   1.270       .  A
O827       Cd830   2.020       .  S
Zn828       O839   2.034       .  S
Zn828       O841   2.041       .  S
Zn828       O833   1.951       .  S
O829        C840   1.273       .  A
O829       Cd834   2.088       .  S
Cd830       O832   2.035       .  S
Cd830       O833   1.971       .  S
Cd831      O1164   2.109       .  S
Cd831       O835   2.102       .  S
Cd831      O1184   2.090       .  S
Cd831       O833   2.015       .  S
O832        C842   1.270       .  A
O833       Cd834   2.004       .  S
Cd834       O836   2.056       .  S
O835        C842   1.278       .  A
C837       O1181   1.276   1_554  A
C838        C882   1.472       .  S
C840        C872   1.474       .  S
O841       C1177   1.277       .  A
C842        C899   1.484       .  S
C843       O1165   1.273   1_554  A
C843        O844   1.278       .  A
C843        C891   1.431       .  S
O844      Cd1171   2.088   1_554  S
C845        C846   1.523       .  S
C845        C851   1.524       .  S
C845        C849   1.536       .  S
C845        C892   1.463       .  S
C846        H853   1.087       .  S
C846        C847   1.361       .  D
C847        C848   1.551       .  S
C847        C869   1.445       .  S
C848        C852   1.546       .  S
C848        C850   1.551       .  S
C848        H854   1.111       .  S
C849        H855   1.086       .  S
C849        C850   1.369       .  D
C850        C893   1.458       .  S
C851        H856   1.088       .  S
C851        C852   1.358       .  D
C852        C970   1.440       .  S
C857        C858   1.531       .  S
C857        C863   1.540       .  S
C857        C861   1.534       .  S
C857        C911   1.527       .  S
C858        H865   1.086       .  S
C858        C859   1.369       .  D
C859        C860   1.544       .  S
C859        C875   1.493       .  S
C860        C864   1.542       .  S
C860        C862   1.531       .  S
C860        H866   1.110       .  S
C861        H867   1.086       .  S
C861        C862   1.366       .  D
C862        C885   1.472       .  S
C863        H868   1.082       .  S
C863        C864   1.364       .  D
C864        C870   1.447       .  S
C869        C870   1.209       .  T
C871        C872   1.406       .  A
C871        C876   1.407       .  A
C871        H877   1.083       .  S
C872        C873   1.399       .  A
C873        C874   1.389       .  A
C873        H878   1.084       .  S
C874        C875   1.408       .  A
C874        H879   1.081       .  S
C875        C876   1.408       .  A
C876        H880   1.082       .  S
C881        C882   1.405       .  A
C881        H887   1.083       .  S
C883        C884   1.399       .  A
C883        H888   1.083       .  S
C884        C885   1.405       .  A
C884        H889   1.083       .  S
C885        C886   1.399       .  A
C886        H890   1.083       .  S
C891        C892   1.204       .  T
C893        C894   1.216       .  T
C895       C1236   1.413   1_554  A
C895        C900   1.399       .  A
C895        H901   1.083       .  S
C896       C1235   1.413       .  A
C896        C897   1.406       .  A
C897        C898   1.396       .  A
C897        H902   1.077       .  S
C898        C899   1.408       .  A
C898        H903   1.083       .  S
C899       C1240   1.402       .  A
C900       C1239   1.402   1_554  A
C900        H904   1.083       .  S
C905        C906   1.208       .  T
C907        C908   1.408       .  A
C907        C912   1.396       .  A
C907        H913   1.083       .  S
C908        C909   1.402       .  A
C909        C910   1.400       .  A
C909        H914   1.083       .  S
C910        C911   1.413       .  A
C910        H915   1.083       .  S
C911        C912   1.405       .  A
C912        H916   1.077       .  S
C917        C918   1.404       .  A
C917        C922   1.405       .  A
C917        H923   1.083       .  S
C918        C919   1.398       .  A
C919        C920   1.388       .  A
C919        H924   1.084       .  S
C920        C921   1.409       .  A
C920        H925   1.081       .  S
C921        C922   1.408       .  A
C922        H926   1.082       .  S
C927        C928   1.407       .  A
C927        C932   1.402       .  A
C927        H933   1.083       .  S
C928        C929   1.401       .  A
C929        H934   1.083       .  S
C930        C931   1.405       .  A
C930        H935   1.083       .  S
C932        H936   1.083       .  S
C937        C938   1.211       .  T
C939        C940   1.209       .  T
C941        C942   1.204   1_455  T
C943        C944   1.208       .  T
C945        C946   1.405       .  A
C945        H951   1.083       .  S
C946        C947   1.405       .  A
C947        H952   1.083       .  S
C948        C949   1.405   1_545  A
C948        H953   1.083       .  S
C949        C950   1.406       .  A
C950        H954   1.082       .  S
C955        C956   1.400       .  A
C955        C960   1.388       .  A
C955        H961   1.084       .  S
C956        C957   1.404       .  A
C957        C958   1.404       .  A
C957        H962   1.083       .  S
C958        C959   1.407       .  A
C958        H963   1.082       .  S
C959        C960   1.406       .  A
C960        H964   1.082       .  S
C966       C1089   1.435       .  S
C967       C1083   1.451       .  S
C967        C968   1.215       .  T
C969        C970   1.206       .  T
C971        C972   1.406       .  A
C971        C976   1.394       .  A
C971        H977   1.076       .  S
C972       C1313   1.413       .  A
C973       C1312   1.412       .  A
C973       C1314   1.400       .  A
C973        H978   1.083       .  S
C974       C1313   1.401       .  A
C974        C975   1.403       .  A
C974       H1319   1.083   1_554  S
C975        C976   1.407       .  A
C976        H980   1.083       .  S
H979       C1314   1.083       .  S
C981        C982   1.206       .  T
C983        C984   1.207       .  T
C985        C986   1.407       .  A
C985        C990   1.395       .  A
C985        H991   1.083       .  S
C986        C987   1.402       .  A
C987        C988   1.399       .  A
C987        H992   1.083       .  S
C988        C989   1.412       .  A
C988        H993   1.083       .  S
C989        C990   1.407       .  A
C990        H994   1.077       .  S
C995        C996   1.405   1_565  A
C995       H1001   1.084       .  S
C997        C998   1.400       .  A
C997       H1002   1.083       .  S
C998        C999   1.406       .  A
C998       H1003   1.075       .  S
C999       C1000   1.400       .  A
C1000      H1344   1.083       .  S
H1004      C1340   1.083       .  S
C1005      C1006   1.402       .  A
C1005      C1010   1.399       .  A
C1005      H1011   1.083       .  S
C1006      C1007   1.404       .  A
C1007      C1008   1.390       .  A
C1007      H1012   1.083       .  S
C1008      C1009   1.406       .  A
C1008      H1013   1.081       .  S
C1009      C1010   1.409       .  A
C1010      H1014   1.076       .  S
C1015      C1016   1.209       .  T
C1017      C1018   1.208       .  T
C1019      C1020   1.206       .  T
O1021      C1037   1.274       .  A
O1021     Zn1027   2.033       .  S
C1022      O1038   1.272       .  A
C1022      O1035   1.276       .  A
C1022      C1359   1.438       .  S
O1023      C1036   1.278       .  A
O1023     Cd1030   2.092       .  S
O1024      C1042   1.276       .  A
O1024     Cd1033   2.076       .  S
O1025      C1039   1.268       .  A
O1025     Cd1029   2.017       .  S
O1026      C1037   1.267       .  A
O1026     Cd1029   2.023       .  S
Zn1027     O1038   2.008       .  S
Zn1027     O1040   2.010       .  S
Zn1027     O1032   1.944       .  S
O1028      C1039   1.276       .  A
O1028     Cd1033   2.087       .  S
Cd1029     O1031   2.035       .  S
Cd1029     O1032   1.973       .  S
Cd1030     O1034   2.099       .  S
Cd1030     O1043   2.096       .  S
Cd1030     O1032   2.012       .  S
O1031      C1041   1.270       .  A
O1032     Cd1033   2.007       .  S
Cd1033     O1035   2.089       .  S
O1034      C1041   1.278       .  A
C1036      O1040   1.273       .  A
C1036      C1358   1.437       .  S
C1037      C1346   1.476       .  S
C1039      C1336   1.468   1_565  S
C1041      C1326   1.482       .  S
C1042      O1043   1.278       .  A
C1044      C1045   1.532       .  S
C1044      C1050   1.527       .  S
C1044      C1048   1.538       .  S
C1044      C1357   1.471       .  S
C1045      H1052   1.087       .  S
C1045      C1046   1.364       .  D
C1046      C1047   1.537       .  S
C1046      C1321   1.441       .  S
C1047      C1051   1.545       .  S
C1047      C1049   1.538       .  S
C1047      H1053   1.111       .  S
C1048      H1054   1.087       .  S
C1048      C1049   1.368       .  D
C1049      C1356   1.447       .  S
C1050      H1055   1.087       .  S
C1050      C1051   1.363       .  D
C1051      C1324   1.444       .  S
C1056      C1062   1.542       .  S
C1056      C1312   1.529       .  S
C1057      H1064   1.086   1_554  S
C1057      C1058   1.367   1_554  D
C1058      C1059   1.541   1_556  S
C1058      C1339   1.480       .  S
C1059      C1061   1.545       .  S
C1059      H1065   1.109       .  S
C1060      H1066   1.085       .  S
C1060      C1061   1.370       .  D
C1061      C1349   1.493   1_554  S
C1062      H1067   1.082       .  S
C1062      C1063   1.362       .  D
C1063      C1323   1.445       .  S
O1068      C1084   1.276       .  A
O1068     Zn1074   2.052       .  S
C1069      O1085   1.277       .  A
C1069      O1082   1.272       .  A
C1069      C1309   1.438   1_655  S
O1071      C1089   1.273       .  A
O1071     Cd1080   2.057       .  S
O1072      C1086   1.271       .  A
O1072     Cd1076   2.051       .  S
O1073      C1084   1.270       .  A
O1073     Cd1076   2.025       .  S
Zn1074     O1085   2.043       .  S
Zn1074     O1087   2.044       .  S
Zn1074     O1079   1.955       .  S
O1075      C1086   1.274       .  A
O1075     Cd1080   2.079       .  S
Cd1076     O1078   2.039       .  S
Cd1076     O1079   1.973       .  S
Cd1077     O1081   2.100       .  S
Cd1077     O1079   2.017       .  S
O1078      C1088   1.271       .  A
O1079     Cd1080   1.999       .  S
Cd1080     O1082   2.063       .  S
O1081      C1088   1.278       .  A
C1083      O1087   1.277       .  A
C1084      C1296   1.469       .  S
C1086      C1286   1.481       .  S
C1088      C1315   1.484       .  S
C1091      C1092   1.527       .  S
C1091      C1097   1.527       .  S
C1091      C1095   1.539       .  S
C1091      C1305   1.470       .  S
C1092      H1099   1.087       .  S
C1092      C1093   1.364       .  D
C1093      C1094   1.544       .  S
C1093      C1283   1.443       .  S
C1094      C1098   1.540       .  S
C1094      C1096   1.544       .  S
C1094      H1100   1.111       .  S
C1095      H1101   1.086       .  S
C1095      C1096   1.369       .  D
C1096      C1308   1.455       .  S
C1097      H1102   1.087       .  S
C1097      C1098   1.360       .  D
C1098      C1282   1.437       .  S
C1103      C1104   1.535       .  S
C1103      C1109   1.538       .  S
C1103      C1107   1.531       .  S
C1103      C1329   1.527       .  S
C1104      H1111   1.086       .  S
C1104      C1105   1.369       .  D
C1105      C1106   1.541       .  S
C1105      C1289   1.486       .  S
C1106      C1110   1.541       .  S
C1106      C1108   1.541       .  S
C1106      H1112   1.109       .  S
C1107      H1113   1.086       .  S
C1107      C1108   1.369       .  D
C1108      C1299   1.487       .  S
C1109      H1114   1.082       .  S
C1109      C1110   1.361       .  D
C1110      C1284   1.444       .  S
O1115      C1131   1.271       .  A
O1115     Zn1121   2.001       .  S
C1116      O1132   1.273       .  A
C1116      O1129   1.269       .  A
C1116      C1258   1.469       .  S
O1117      C1130   1.278       .  A
O1117     Cd1124   2.096       .  S
O1118      C1136   1.270       .  A
O1118     Cd1127   2.037       .  S
O1119      C1133   1.277       .  A
O1119     Cd1123   2.095       .  S
O1120      C1131   1.276       .  A
O1120     Cd1123   2.088       .  S
Zn1121     O1132   2.039       .  S
Zn1121     O1134   2.013       .  S
Zn1121     O1126   1.948       .  S
O1122      C1133   1.270       .  A
O1122     Cd1127   2.029       .  S
Cd1123     O1125   2.081       .  S
Cd1123     O1126   2.011       .  S
Cd1124     O1128   2.100       .  S
Cd1124     O1137   2.101       .  S
Cd1124     O1126   2.015       .  S
O1125      C1135   1.276       .  A
O1126     Cd1127   1.972       .  S
Cd1127     O1129   2.034       .  S
O1128      C1135   1.279       .  A
C1130      O1134   1.273       .  A
C1130      C1279   1.440       .  S
C1131      C1322   1.435       .  S
C1133      C1271   1.476       .  S
C1136      O1137   1.278       .  A
C1136      C1248   1.484       .  S
C1138      C1139   1.527       .  S
C1138      C1144   1.531       .  S
C1138      C1142   1.539       .  S
C1138      C1280   1.473       .  S
C1139      H1146   1.087       .  S
C1139      C1140   1.363       .  D
C1140      C1141   1.549       .  S
C1140      C1245   1.448       .  S
C1141      C1145   1.540       .  S
C1141      C1143   1.541       .  S
C1141      H1147   1.111       .  S
C1142      H1148   1.086       .  S
C1142      C1143   1.368       .  D
C1143      C1277   1.452       .  S
C1144      H1149   1.087       .  S
C1144      C1145   1.364       .  D
C1145      C1360   1.444       .  S
C1150      C1156   1.540       .  S
C1150      C1236   1.527       .  S
C1151      H1158   1.086       .  S
C1151      C1152   1.368       .  D
C1152      C1153   1.543       .  S
C1152      C1261   1.490       .  S
C1153      C1155   1.536       .  S
C1153      H1159   1.109       .  S
C1154      H1160   1.086       .  S
C1154      C1155   1.369       .  D
C1155      C1268   1.480       .  S
C1156      H1161   1.082       .  S
C1156      C1157   1.364       .  D
C1157      C1246   1.448       .  S
O1162      C1178   1.276       .  A
O1162     Zn1168   2.037       .  S
C1163      O1179   1.275       .  A
C1163      O1176   1.272       .  A
C1163      C1281   1.432       .  S
O1164      C1177   1.279       .  A
O1165     Cd1174   2.053       .  S
O1166      C1180   1.270       .  A
O1166     Cd1170   2.044       .  S
O1167      C1178   1.270       .  A
O1167     Cd1170   2.021       .  S
Zn1168     O1179   2.028       .  S
Zn1168     O1181   2.040       .  S
Zn1168     O1173   1.949       .  S
O1169      C1180   1.273       .  A
O1169     Cd1174   2.094       .  S
Cd1170     O1172   2.034       .  S
Cd1170     O1173   1.969       .  S
Cd1171     O1175   2.101       .  S
Cd1171     O1173   2.015       .  S
O1172      C1182   1.270       .  A
O1173     Cd1174   2.006       .  S
Cd1174     O1176   2.058       .  S
O1175      C1182   1.278       .  A
C1178      C1222   1.472       .  S
C1180      C1212   1.478       .  S
C1182      C1239   1.483       .  S
C1183      O1184   1.278       .  A
C1183      C1231   1.431       .  S
C1185      C1186   1.523       .  S
C1185      C1191   1.525       .  S
C1185      C1189   1.536       .  S
C1185      C1232   1.464       .  S
C1186      H1193   1.087       .  S
C1186      C1187   1.361       .  D
C1187      C1188   1.551       .  S
C1187      C1209   1.446       .  S
C1188      C1192   1.546       .  S
C1188      C1190   1.550       .  S
C1188      H1194   1.111       .  S
C1189      H1195   1.086       .  S
C1189      C1190   1.369       .  D
C1190      C1233   1.458       .  S
C1191      H1196   1.088       .  S
C1191      C1192   1.359       .  D
C1192      C1310   1.442       .  S
C1197      C1198   1.530       .  S
C1197      C1203   1.539       .  S
C1197      C1201   1.534       .  S
C1197      C1251   1.527       .  S
C1198      H1205   1.085       .  S
C1198      C1199   1.370       .  D
C1199      C1200   1.546       .  S
C1199      C1215   1.496       .  S
C1200      C1204   1.543       .  S
C1200      C1202   1.532       .  S
C1200      H1206   1.109       .  S
C1201      H1207   1.086       .  S
C1201      C1202   1.366       .  D
C1202      C1225   1.474       .  S
C1203      H1208   1.083       .  S
C1203      C1204   1.364       .  D
C1204      C1210   1.448       .  S
C1209      C1210   1.209       .  T
C1211      C1212   1.406       .  A
C1211      C1216   1.408       .  A
C1211      H1217   1.083       .  S
C1212      C1213   1.400       .  A
C1213      C1214   1.388       .  A
C1213      H1218   1.084       .  S
C1214      C1215   1.408       .  A
C1214      H1219   1.081       .  S
C1215      C1216   1.409       .  A
C1216      H1220   1.082       .  S
C1221      C1222   1.405       .  A
C1221      H1227   1.083       .  S
C1223      C1224   1.399       .  A
C1223      H1228   1.083       .  S
C1224      C1225   1.405       .  A
C1224      H1229   1.083       .  S
C1225      C1226   1.400       .  A
C1226      H1230   1.083       .  S
C1231      C1232   1.204       .  T
C1233      C1234   1.216       .  T
C1235      C1240   1.399       .  A
C1235      H1241   1.083       .  S
C1236      C1237   1.406       .  A
C1237      C1238   1.396       .  A
C1237      H1242   1.077       .  S
C1238      C1239   1.408       .  A
C1238      H1243   1.083       .  S
C1240      H1244   1.083       .  S
C1245      C1246   1.210       .  T
C1247      C1248   1.408       .  A
C1247      C1252   1.396       .  A
C1247      H1253   1.083       .  S
C1248      C1249   1.402       .  A
C1249      C1250   1.399       .  A
C1249      H1254   1.083       .  S
C1250      C1251   1.413       .  A
C1250      H1255   1.083       .  S
C1251      C1252   1.406       .  A
C1252      H1256   1.077       .  S
C1257      C1258   1.404       .  A
C1257      C1262   1.406       .  A
C1257      H1263   1.083       .  S
C1258      C1259   1.398       .  A
C1259      C1260   1.387       .  A
C1259      H1264   1.084       .  S
C1260      C1261   1.408       .  A
C1260      H1265   1.081       .  S
C1261      C1262   1.408       .  A
C1262      H1266   1.082       .  S
C1267      C1268   1.407       .  A
C1267      C1272   1.401       .  A
C1267      H1273   1.083       .  S
C1268      C1269   1.401       .  A
C1269      H1274   1.083       .  S
C1270      C1271   1.406       .  A
C1270      H1275   1.083       .  S
C1272      H1276   1.083       .  S
C1277      C1278   1.212       .  T
C1279      C1280   1.209       .  T
C1281      C1282   1.204   1_455  T
C1283      C1284   1.207       .  T
C1285      C1286   1.405       .  A
C1285      H1291   1.083       .  S
C1286      C1287   1.406       .  A
C1287      H1292   1.083       .  S
C1288      C1289   1.405   1_545  A
C1288      H1293   1.083       .  S
C1289      C1290   1.407       .  A
C1290      H1294   1.082       .  S
C1295      C1296   1.400       .  A
C1295      C1300   1.387       .  A
C1295      H1301   1.084       .  S
C1296      C1297   1.404       .  A
C1297      C1298   1.405       .  A
C1297      H1302   1.083       .  S
C1298      C1299   1.408       .  A
C1298      H1303   1.082       .  S
C1299      C1300   1.406       .  A
C1300      H1304   1.082       .  S
C1307      C1308   1.214       .  T
C1309      C1310   1.207       .  T
C1311      C1312   1.407       .  A
C1311      C1316   1.395       .  A
C1311      H1317   1.076       .  S
C1313      H1318   1.083   1_554  S
C1314      C1315   1.403       .  A
C1315      C1316   1.407       .  A
C1316      H1320   1.083       .  S
C1321      C1322   1.206       .  T
C1323      C1324   1.208       .  T
C1325      C1326   1.407       .  A
C1325      C1330   1.395       .  A
C1325      H1331   1.083       .  S
C1326      C1327   1.402       .  A
C1327      C1328   1.399       .  A
C1327      H1332   1.083       .  S
C1328      C1329   1.412       .  A
C1328      H1333   1.083       .  S
C1329      C1330   1.407       .  A
C1330      H1334   1.077       .  S
C1335      C1336   1.406   1_565  A
C1335      H1341   1.083       .  S
C1337      C1338   1.398       .  A
C1337      H1342   1.083       .  S
C1338      C1339   1.405       .  A
C1338      H1343   1.070       .  S
C1339      C1340   1.401       .  A
C1345      C1346   1.402       .  A
C1345      C1350   1.400       .  A
C1345      H1351   1.083       .  S
C1346      C1347   1.405       .  A
C1347      C1348   1.390       .  A
C1347      H1352   1.083       .  S
C1348      C1349   1.405       .  A
C1348      H1353   1.081       .  S
C1349      C1350   1.408       .  A
C1350      H1354   1.072       .  S
C1355      C1356   1.209       .  T
C1357      C1358   1.207       .  T
C1359      C1360   1.207       .  T
