geometry optimzed in LAMMPS
_audit_creation_date              2020-11-30 
_audit_creation_method            'lammps2cif' 
_symmetry_space_group_name_H-M    'P1' 
_symmetry_Int_Tables_number       1 
_symmetry_cell_setting            triclinic 
loop_ 
_symmetry_equiv_pos_as_xyz 
  x,y,z 
_cell_length_a                    36.53819254 
_cell_length_b                    36.42796261295255 
_cell_length_c                    36.05437028255051 
_cell_angle_alpha                 90.00273420428636 
_cell_angle_beta                  90.0005221785887 
_cell_angle_gamma                 90.00072948857506 
loop_ 
_atom_site_label 
_atom_site_type_symbol 
_atom_site_fract_x 
_atom_site_fract_y 
_atom_site_fract_z 
_atom_site_charge 
C1          C  0.33056919  0.34266519  0.16354799     0.00800
C2          C  0.33063711  0.22220686  0.28430158     0.00800
C3          C  0.21103192  0.22237013  0.16310724     0.00800
C4          C  0.21135599  0.34254969  0.28512672     0.00800
C5          C  0.33083827  0.22217220  0.66384247     0.00800
C6          C  0.21138626  0.22243414  0.78512479     0.00800
C7          C  0.21166804  0.34253842  0.66283743     0.00800
C8          C  0.33085331  0.34271235  0.78439031     0.00800
N9          N  0.47721828  0.49057222  0.90403289    -0.02900
N10         N  0.46913858  0.46652463  0.87785005    -0.55000
N11         N  0.45175658  0.57436706  0.92992103    -0.02500
N12         N  0.42587896  0.59838968  0.92184534    -0.57100
N13         N  0.47720468  0.57438010  0.90404262    -0.02100
N14         N  0.46912007  0.59841942  0.87785646    -0.55000
N15         N  0.45177271  0.49058027  0.92991253    -0.01800
N16         N  0.42590499  0.46654456  0.92184673    -0.57500
C17         C  0.43738137  0.45153280  0.88963210     0.99300
C18         C  0.43735441  0.61339886  0.88962910     0.99100
N19         N  0.47714619  0.57434823  0.04405613    -0.03100
N20         N  0.46898115  0.59831872  0.07028895    -0.55600
N21         N  0.45172871  0.49056635  0.01811779    -0.01200
N22         N  0.42580416  0.46659246  0.02618885    -0.56800
N23         N  0.47716106  0.49053435  0.04401532    -0.03100
N24         N  0.46900423  0.46652793  0.07021581    -0.55800
N25         N  0.45171264  0.57433552  0.01815899    -0.00800
N26         N  0.42577590  0.59828590  0.02626686    -0.56900
Mn27       Mn  0.45102083  0.53246579  0.97402340     1.18400
C28         C  0.43718704  0.61325629  0.05852664     1.01400
C29         C  0.43721910  0.45158743  0.05842712     1.02100
N30         N  0.56431137  0.57439422  0.90405200    -0.03100
N31         N  0.57241074  0.59840552  0.87784564    -0.59400
N32         N  0.58977003  0.49061008  0.92992645    -0.01900
N33         N  0.61566451  0.46660972  0.92184426    -0.60100
N34         N  0.56432659  0.49059318  0.90404390    -0.02600
N35         N  0.57243465  0.46657524  0.87784401    -0.59700
N36         N  0.58975685  0.57439283  0.92993365    -0.01500
N37         N  0.61564742  0.59839615  0.92183833    -0.60400
Mn38       Mn  0.52076501  0.53248443  0.90326851     1.10700
C39         C  0.60417888  0.61338422  0.88960881     1.02600
C40         C  0.60420443  0.45160785  0.88961920     1.02700
N41         N  0.56435622  0.49055638  0.04401963    -0.02600
N42         N  0.57252517  0.46657275  0.07023506    -0.58000
N43         N  0.58978356  0.57435979  0.01817170    -0.01900
N44         N  0.61572567  0.59829660  0.02630536    -0.54700
N45         N  0.56434313  0.57436054  0.04406198    -0.03200
N46         N  0.57250862  0.59830878  0.07031390    -0.57600
N47         N  0.58979622  0.49059726  0.01813035    -0.02200
N48         N  0.61573922  0.46665124  0.02622312    -0.54700
Mn49       Mn  0.52075157  0.53244938  0.04481130     1.20200
Mn50       Mn  0.59049849  0.53249396  0.97403665     1.10100
Cl51       Cl  0.52075894  0.53247704  0.97403947    -0.82700
C52         C  0.60432322  0.45165203  0.05846395     0.99600
C53         C  0.60430672  0.61324861  0.05857018     0.99400
C54         C  0.33074133  0.72243996  0.16361866     0.00800
C55         C  0.21119803  0.84265792  0.16289551     0.00800
C56         C  0.21155947  0.72283129  0.28526040     0.00800
C57         C  0.33079651  0.84324908  0.28407618     0.00800
N58         N  0.47731753  0.07462760  0.54404060    -0.02900
N59         N  0.46920456  0.09864714  0.57023626    -0.55000
N60         N  0.45189048  0.99083591  0.51815296    -0.02500
N61         N  0.42598727  0.96684991  0.52625535    -0.57100
N62         N  0.47733010  0.99083672  0.54404077    -0.02100
N63         N  0.46921458  0.96684429  0.57025834    -0.55000
N64         N  0.45187939  0.07460854  0.51815278    -0.01800
N65         N  0.42598294  0.09860876  0.52622668    -0.57500
C66         C  0.43743761  0.11361173  0.55845297     0.99300
C67         C  0.43744266  0.95187456  0.55849533     0.99100
N68         N  0.47732904  0.99086545  0.40402296    -0.03100
N69         N  0.46915534  0.96694084  0.37775232    -0.55600
N70         N  0.45187071  0.07462089  0.42995222    -0.01200
N71         N  0.42592263  0.09855743  0.42184817    -0.56800
N72         N  0.47731717  0.07466346  0.40406932    -0.03100
N73         N  0.46914723  0.09863907  0.37784683    -0.55800
N74         N  0.45188260  0.99086499  0.42990672    -0.00800
N75         N  0.42592717  0.96695078  0.42174972    -0.56900
Mn76       Mn  0.45116057  0.03272710  0.47404497     1.18400
C77         C  0.43734523  0.95201282  0.38947715     1.01400
C78         C  0.43734192  0.11355214  0.38960670     1.02100
N79         N  0.56443809  0.99083829  0.54407140    -0.03100
N80         N  0.57251669  0.96679812  0.57025935    -0.59400
N81         N  0.58987027  0.07464192  0.51819419    -0.03900
N82         N  0.61572068  0.09869969  0.52624708    -0.60100
N83         N  0.56441852  0.07465423  0.54406737    -0.02600
N84         N  0.57247681  0.09872647  0.57023367    -0.59700
N85         N  0.58988934  0.99084711  0.51819655    -0.01500
N86         N  0.61576247  0.96682083  0.52627586    -0.60400
Mn87       Mn  0.52087800  0.03273900  0.54483015     1.10700
C88         C  0.60428205  0.95181216  0.55849182     1.02600
C89         C  0.60422772  0.11372821  0.55844692     1.02700
N90         N  0.56450828  0.07468705  0.40410229    -0.02600
N91         N  0.57265356  0.09871731  0.37792142    -0.58000
N92         N  0.58995372  0.99087708  0.42995751    -0.01900
N93         N  0.61588591  0.96691788  0.42186018    -0.54700
N94         N  0.56452714  0.99086819  0.40405292    -0.03200
N95         N  0.57269308  0.96689131  0.37782605    -0.57600
N96         N  0.58993596  0.07465158  0.43000353    -0.02200
N97         N  0.61584692  0.09864748  0.42195630    -0.54700
Mn98       Mn  0.52092271  0.03277100  0.40328880     1.20200
Mn99       Mn  0.59063663  0.03274893  0.47409255     1.10100
Cl100      Cl  0.52089872  0.03274092  0.47405956    -0.82700
C101        C  0.60442720  0.11366836  0.38972708     0.99600
C102        C  0.60447934  0.95194504  0.38959943     0.99400
C103        C  0.71085897  0.34316586  0.78413857     0.00800
C104        C  0.83028778  0.34270728  0.66283506     0.00800
C105        C  0.71079457  0.22253295  0.66364938     0.00800
C106        C  0.82996803  0.22270249  0.78521214     0.00800
C107        C  0.33105480  0.72246059  0.78438872     0.00800
C108        C  0.33103428  0.84320148  0.66399888     0.00800
C109        C  0.21190596  0.72275643  0.66277023     0.00800
C110        C  0.21157042  0.84265698  0.78525962     0.00800
C111        C  0.71094387  0.84286807  0.28440725     0.00800
C112        C  0.83041566  0.72255931  0.28516597     0.00800
C113        C  0.71083869  0.72202993  0.16396807     0.00800
C114        C  0.83009886  0.84238398  0.16277533     0.00800
C115        C  0.71064346  0.72201978  0.78410623     0.00800
C116        C  0.83007049  0.72253008  0.66279293     0.00800
C117        C  0.71070132  0.84286006  0.66374235     0.00800
C118        C  0.82984354  0.84233648  0.78533949     0.00800
N119        N  0.06238808  0.07617127  0.04386393    -0.02900
N120        N  0.08687739  0.08396208  0.06967368    -0.55000
N121        N  0.97854643  0.10163600  0.01791709    -0.02500
N122        N  0.95403607  0.12720788  0.02554442    -0.57100
N123        N  0.97851295  0.07613526  0.04381684    -0.02100
N124        N  0.95396829  0.08389408  0.06957980    -0.55000
N125        N  0.06237260  0.10167123  0.01795984    -0.01800
N126        N  0.08683905  0.12727466  0.02563792    -0.57500
C127        C  0.10212309  0.11561167  0.05765900     0.99300
C128        C  0.93870820  0.11552273  0.05753289     0.99100
N129        N  0.97851699  0.07616473  0.90395658    -0.03100
N130        N  0.95392980  0.08391441  0.87823053    -0.55600
N131        N  0.06238227  0.10168669  0.92984805    -0.01200
N132        N  0.08688005  0.12727531  0.92222887    -0.56800
N133        N  0.06240755  0.07620823  0.90392001    -0.03100
N134        N  0.08693680  0.08400203  0.87814890    -0.55800
N135        N  0.97854744  0.10164394  0.92988099    -0.00800
N136        N  0.95399499  0.12718898  0.92231024    -0.56900
Mn137      Mn  0.02046973  0.10245157  0.97389820     1.18400
C138        C  0.93864513  0.11551541  0.89032986     1.01400
C139        C  0.10219321  0.11563101  0.89021564     1.02100
N140        N  0.97853225  0.98882079  0.04378968    -0.03100
N141        N  0.95398065  0.98104244  0.06953891    -0.59400
N142        N  0.06239949  0.96333637  0.01791818    -0.01900
N143        N  0.08687841  0.93774103  0.02557397    -0.60100
N144        N  0.06240580  0.98882173  0.04383885    -0.02600
N145        N  0.08690187  0.98102854  0.06964000    -0.59700
N146        N  0.97857954  0.96333352  0.01787397    -0.01500
N147        N  0.95407252  0.93775215  0.02547464    -0.60400
Mn148      Mn  0.02046179  0.03248707  0.04469030     1.10700
C149        C  0.93873312  0.94941645  0.05746458     1.02600
C150        C  0.10216012  0.94939384  0.05760021     1.02700
N151        N  0.06242647  0.98884572  0.90389931    -0.02600
N152        N  0.08696537  0.98107309  0.87813044    -0.58000
N153        N  0.97858155  0.96336394  0.92985003    -0.01900
N154        N  0.95403208  0.93781588  0.92228012    -0.54700
N155        N  0.97853707  0.98885116  0.90393665    -0.03200
N156        N  0.95394244  0.98110424  0.87821701    -0.57600
N157        N  0.06241024  0.96335999  0.92981731    -0.02200
N158        N  0.08692307  0.93778820  0.92219562    -0.54700
Mn159      Mn  0.02047563  0.03251766  0.90305192     1.20200
Mn160      Mn  0.02050086  0.96255739  0.97386114     1.10100
Cl161      Cl  0.02048906  0.03250387  0.97387471    -0.82700
C162        C  0.10223555  0.94944942  0.89019105     0.99600
C163        C  0.93866990  0.94949659  0.89031006     0.99400
C164        C  0.71101413  0.22260222  0.28457767     0.00800
C165        C  0.83021133  0.22259210  0.16298513     0.00800
C166        C  0.71101841  0.34307336  0.16386021     0.00800
C167        C  0.83059521  0.34277402  0.28505134     0.00800
N168        N  0.06310114  0.48907315  0.40423713    -0.02900
N169        N  0.08765832  0.48130687  0.37848866    -0.55000
N170        N  0.97922399  0.46357822  0.43008210    -0.02500
N171        N  0.95474891  0.43798384  0.42240808    -0.57100
N172        N  0.97922463  0.48907179  0.40417239    -0.02100
N173        N  0.95473663  0.48128467  0.37836037    -0.55000
N174        N  0.06304657  0.46357204  0.43013690    -0.01800
N175        N  0.08755388  0.43799385  0.42252543    -0.57500
C176        C  0.10290253  0.44967429  0.39054751     0.99300
C177        C  0.93947599  0.44964545  0.39038291     0.99100
N178        N  0.97918314  0.48903262  0.54410737    -0.03100
N179        N  0.95464202  0.48124976  0.56986976    -0.55600
N180        N  0.06302873  0.46355151  0.51816391    -0.01200
N181        N  0.08756252  0.43798844  0.52573468    -0.56800
N182        N  0.06307466  0.48903082  0.54408797    -0.03100
N183        N  0.08765363  0.48126221  0.56981581    -0.55800
N184        N  0.97919672  0.46356124  0.51817308    -0.00800
N185        N  0.95468033  0.43798815  0.52577801    -0.56900
Mn186      Mn  0.02111624  0.46277486  0.47414157     1.18400
C187        C  0.93936744  0.44963564  0.55778803     1.01400
C188        C  0.10291734  0.44965068  0.55771732     1.02100
N189        N  0.97923763  0.57641090  0.40419732    -0.03100
N190        N  0.95474309  0.58420491  0.37839524    -0.59400
N191        N  0.06306492  0.60188542  0.43017283    -0.01900
N192        N  0.08757779  0.62746218  0.42257348    -0.60100
N193        N  0.06311080  0.57639726  0.40425700    -0.02600
N194        N  0.08766777  0.58417153  0.37851008    -0.59700
N195        N  0.97924279  0.60189369  0.43012001    -0.01500
N196        N  0.95476465  0.62748917  0.42246499    -0.60400
Mn197      Mn  0.02116885  0.53273802  0.40335095     1.10700
C198        C  0.93948516  0.61583940  0.39043688     1.02600
C199        C  0.10291995  0.61579609  0.39058602     1.02700
N200        N  0.06308424  0.57636339  0.54412072    -0.02600
N201        N  0.08766988  0.58410911  0.56985117    -0.58000
N202        N  0.97921429  0.60185957  0.51821811    -0.01900
N203        N  0.95468575  0.62741908  0.52582900    -0.54700
N204        N  0.97919431  0.57637175  0.54413415    -0.03200
N205        N  0.95463767  0.58412888  0.56988913    -0.57600
N206        N  0.06304653  0.60185584  0.51821155    -0.02200
N207        N  0.08759215  0.62740477  0.52579599    -0.54700
Mn208      Mn  0.02113486  0.53269958  0.54498935     1.20200
Mn209      Mn  0.02113517  0.60266592  0.47418450     1.10100
Cl210      Cl  0.02113169  0.53272013  0.47416707    -0.82700
C211        C  0.10294461  0.61572220  0.55777036     0.99600
C212        C  0.93936166  0.61574615  0.55782344     0.99400
C213        C  0.91417350  0.42807424  0.36887636    -0.15300
C214        C  0.89448812  0.40888368  0.35019517     0.08800
C215        C  0.87242659  0.38580452  0.32786074     0.10700
C216        C  0.85375440  0.36614012  0.30858674    -0.16100
C217        C  0.73486702  0.36518334  0.18787876    -0.15300
C218        C  0.75726983  0.37458191  0.21058093     0.08800
C219        C  0.78453984  0.37451404  0.23830994     0.10700
C220        C  0.80687262  0.36498266  0.26101803    -0.16100
C221        C  0.73465646  0.31921184  0.14138299    -0.15300
C222        C  0.75686925  0.29662732  0.13169295     0.08800
C223        C  0.78401844  0.26904298  0.13140163     0.10700
C224        C  0.80638916  0.24645702  0.14070837    -0.16100
C225        C  0.85245577  0.31879583  0.26080606    -0.15300
C226        C  0.86145887  0.29628872  0.23791830     0.08800
C227        C  0.86136675  0.26895390  0.21004782     0.10700
C228        C  0.85221690  0.24648613  0.18718021    -0.16100
C229        C  0.68901595  0.24649228  0.26053127    -0.15300
C230        C  0.67959624  0.26907794  0.23799217     0.08800
C231        C  0.67961116  0.29667366  0.21054033     0.10700
C232        C  0.68904173  0.31923417  0.18797916    -0.16100
C233        C  0.73477848  0.24641550  0.30698033    -0.15300
C234        C  0.75708118  0.26896019  0.31656555     0.08800
C235        C  0.78431003  0.29647535  0.31674707     0.10700
C236        C  0.80673309  0.31899049  0.30738257    -0.16100
C237        C  0.80646950  0.20046255  0.18706890    -0.15300
C238        C  0.78418201  0.19099204  0.20984504     0.08800
C239        C  0.75702120  0.19099676  0.23768014     0.10700
C240        C  0.73473443  0.20045230  0.26047099    -0.16100
C241        C  0.85322383  0.19914929  0.13939440    -0.15300
C242        C  0.87178395  0.17942960  0.12007585     0.08800
C243        C  0.89374711  0.15630307  0.09770549     0.10700
C244        C  0.91339485  0.13709045  0.07901512    -0.16100
C245        C  0.91328046  0.92794488  0.86891042    -0.15300
C246        C  0.89357007  0.90868993  0.85033705     0.08800
C247        C  0.87154318  0.88549107  0.82811469     0.10700
C248        C  0.85293030  0.86573595  0.80889047    -0.16100
C249        C  0.73441354  0.86495134  0.68790621    -0.15300
C250        C  0.75668790  0.87430591  0.71074910     0.08800
C251        C  0.78382246  0.87414024  0.73860445     0.10700
C252        C  0.80608845  0.86453743  0.76134231    -0.16100
C253        C  0.80628557  0.74642818  0.64050251    -0.15300
C254        C  0.78391377  0.76903207  0.63122949     0.08800
C255        C  0.75673542  0.79659430  0.63155947     0.10700
C256        C  0.73446209  0.81911822  0.64126112    -0.16100
C257        C  0.85176803  0.81845192  0.76106059    -0.15300
C258        C  0.86086325  0.79603321  0.73812252     0.08800
C259        C  0.86092483  0.76879794  0.71015230     0.10700
C260        C  0.85192079  0.74639213  0.68716429    -0.16100
C261        C  0.91393881  0.63726796  0.57923462    -0.15300
C262        C  0.89414572  0.65644668  0.59780979     0.08800
C263        C  0.87197614  0.67953268  0.62002702     0.10700
C264        C  0.85324724  0.69919718  0.63924240    -0.16100
C265        C  0.68869213  0.74597995  0.76009105    -0.15300
C266        C  0.67928308  0.76861612  0.73760011     0.08800
C267        C  0.67928743  0.79627420  0.71021624     0.10700
C268        C  0.68871272  0.81890556  0.68772738    -0.16100
C269        C  0.80628141  0.70027752  0.68671327    -0.15300
C270        C  0.78395734  0.69069879  0.70940727     0.08800
C271        C  0.75675450  0.69058259  0.73720050     0.10700
C272        C  0.73442586  0.69994933  0.75998726    -0.16100
C273        C  0.73432565  0.74575253  0.80666977    -0.15300
C274        C  0.75653947  0.76827945  0.81648653     0.08800
C275        C  0.78368303  0.79586258  0.81690303     0.10700
C276        C  0.80604637  0.81846906  0.80763574    -0.16100
C277        C  0.85313779  0.86577435  0.13916706    -0.15300
C278        C  0.87172979  0.88548202  0.11987299     0.08800
C279        C  0.89373013  0.90861503  0.09755502     0.10700
C280        C  0.91340261  0.92783955  0.07890926    -0.16100
C281        C  0.73449948  0.74579255  0.14141070    -0.15300
C282        C  0.75672557  0.76833059  0.13164145     0.08800
C283        C  0.78388719  0.79590116  0.13126946     0.10700
C284        C  0.80626746  0.81849783  0.14052974    -0.16100
C285        C  0.80664510  0.70030790  0.26121982    -0.15300
C286        C  0.78430159  0.69073551  0.23853971     0.08800
C287        C  0.75704562  0.69061732  0.21079636     0.10700
C288        C  0.73466547  0.69997241  0.18805595    -0.16100
C289        C  0.85208475  0.81851887  0.18701146    -0.15300
C290        C  0.86123170  0.79609756  0.20992114     0.08800
C291        C  0.86131485  0.76884145  0.23786393     0.10700
C292        C  0.85229336  0.74642189  0.26082683    -0.16100
C293        C  0.85357206  0.69923438  0.30874394    -0.15300
C294        C  0.87228042  0.67960363  0.32801173     0.08800
C295        C  0.89440743  0.65656029  0.35031567     0.10700
C296        C  0.91414391  0.63739529  0.36896521    -0.16100
C297        C  0.68894274  0.81891691  0.26041554    -0.15300
C298        C  0.67952757  0.79627744  0.23792163     0.08800
C299        C  0.67951375  0.76861292  0.21053041     0.10700
C300        C  0.68889610  0.74597510  0.18802081    -0.16100
C301        C  0.73466632  0.86494761  0.26023990    -0.15300
C302        C  0.75695699  0.87430013  0.23741137     0.08800
C303        C  0.78410721  0.87415579  0.20956732     0.10700
C304        C  0.80637327  0.86457830  0.18681513    -0.16100
C305        C  0.73471499  0.81910603  0.30685993    -0.15300
C306        C  0.75701448  0.79657667  0.31648992     0.08800
C307        C  0.78421928  0.76903436  0.31673885     0.10700
C308        C  0.80660625  0.74645485  0.30743895    -0.16100
C309        C  0.18836325  0.86598102  0.80879117    -0.15300
C310        C  0.16962057  0.88564352  0.82799643     0.08800
C311        C  0.14744235  0.90873162  0.85020494     0.10700
C312        C  0.12764807  0.92791704  0.86877544    -0.16100
C313        C  0.18975558  0.81873102  0.76091713    -0.15300
C314        C  0.18077972  0.79628662  0.73795476     0.08800
C315        C  0.18086239  0.76903128  0.71000200     0.10700
C316        C  0.18996792  0.74661736  0.68706277    -0.16100
C317        C  0.18882621  0.69935253  0.63920677    -0.15300
C318        C  0.17018887  0.67962491  0.61997254     0.08800
C319        C  0.14811051  0.65647339  0.59774252     0.10700
C320        C  0.12836014  0.63725455  0.57916898    -0.16100
C321        C  0.30737959  0.81941823  0.64145790    -0.15300
C322        C  0.28517927  0.79687034  0.63165662     0.08800
C323        C  0.25804522  0.76927499  0.63123746     0.10700
C324        C  0.23568871  0.74665336  0.64048734    -0.16100
C325        C  0.30722360  0.86526500  0.68809237    -0.15300
C326        C  0.28486882  0.87463145  0.71085286     0.08800
C327        C  0.25764487  0.87450983  0.73862213     0.10700
C328        C  0.23532300  0.86492125  0.76131446    -0.16100
C329        C  0.30735825  0.70036768  0.76020889    -0.15300
C330        C  0.28510356  0.69096336  0.73736691     0.08800
C331        C  0.25797043  0.69103516  0.70950785     0.10700
C332        C  0.23568400  0.70057297  0.68676215    -0.16100
C333        C  0.23539662  0.81882141  0.80757258    -0.15300
C334        C  0.25779918  0.79625653  0.81686494     0.08800
C335        C  0.28500068  0.76871795  0.81655283     0.10700
C336        C  0.30728387  0.74620043  0.80686007    -0.16100
C337        C  0.35306147  0.74641549  0.76042282    -0.15300
C338        C  0.36248927  0.76904723  0.73793706     0.08800
C339        C  0.36246791  0.79669163  0.71054048     0.10700
C340        C  0.35302128  0.81929569  0.68803493    -0.16100
C341        C  0.85302866  0.19927754  0.80876905    -0.15300
C342        C  0.87160701  0.17952080  0.82802776     0.08800
C343        C  0.89359290  0.15632840  0.85030291     0.10700
C344        C  0.91327504  0.13707662  0.86891197    -0.16100
C345        C  0.73449803  0.20039675  0.68777938    -0.15300
C346        C  0.75676382  0.19096394  0.71059729     0.08800
C347        C  0.78390632  0.19101239  0.73844653     0.10700
C348        C  0.80619391  0.20053649  0.76119808    -0.16100
C349        C  0.73455404  0.24629377  0.64119324    -0.15300
C350        C  0.75683126  0.26881630  0.63150502     0.08800
C351        C  0.78403725  0.29634881  0.63120119     0.10700
C352        C  0.80644824  0.31889708  0.64050917    -0.16100
C353        C  0.85191110  0.24658363  0.76094372    -0.15300
C354        C  0.86100889  0.26901645  0.73801985     0.08800
C355        C  0.86108615  0.29629149  0.71008666     0.10700
C356        C  0.85211109  0.31875576  0.68714429    -0.16100
C357        C  0.85347514  0.36604953  0.63930504    -0.15300
C358        C  0.87216659  0.38573332  0.62007264     0.08800
C359        C  0.89426412  0.40885459  0.59781972     0.10700
C360        C  0.91399661  0.42807064  0.57921783    -0.16100
C361        C  0.68886748  0.31928516  0.76008666    -0.15300
C362        C  0.67940376  0.29669663  0.73757279     0.08800
C363        C  0.67937783  0.26906909  0.71016421     0.10700
C364        C  0.68881003  0.24645962  0.68765933    -0.16100
C365        C  0.80618294  0.24657881  0.80751365    -0.15300
C366        C  0.78383113  0.26919143  0.81679657     0.08800
C367        C  0.75670661  0.29679338  0.81641931     0.10700
C368        C  0.73451287  0.31935926  0.80664954    -0.16100
C369        C  0.73466647  0.36525326  0.76006235    -0.15300
C370        C  0.75701744  0.37463006  0.73730246     0.08800
C371        C  0.78423419  0.37452385  0.70952308     0.10700
C372        C  0.80654713  0.36495245  0.68681334    -0.16100
C373        C  0.62620069  0.13848420  0.36794630    -0.15300
C374        C  0.64535151  0.15808737  0.34920691     0.08800
C375        C  0.66819348  0.18041970  0.32702438     0.10700
C376        C  0.68766967  0.19941038  0.30795845    -0.16100
C377        C  0.62599170  0.92698767  0.58031359    -0.15300
C378        C  0.64508461  0.90739425  0.59911656     0.08800
C379        C  0.66788253  0.88508383  0.62135575     0.10700
C380        C  0.68734850  0.86609503  0.64042597    -0.16100
C381        C  0.62625720  0.92715834  0.36777576    -0.15300
C382        C  0.64537918  0.90754964  0.34900395     0.08800
C383        C  0.66817244  0.88517485  0.32680101     0.10700
C384        C  0.68761275  0.86613049  0.30774408    -0.16100
C385        C  0.41569241  0.92713982  0.58036589    -0.15300
C386        C  0.39660117  0.90762755  0.59924791     0.08800
C387        C  0.37383099  0.88540069  0.62158744     0.10700
C388        C  0.35438523  0.86645037  0.64071030    -0.16100
C389        C  0.68742618  0.19934684  0.64031146    -0.15300
C390        C  0.66791715  0.18040622  0.62124223     0.08800
C391        C  0.64506085  0.15814403  0.59902558     0.10700
C392        C  0.62593300  0.13856647  0.58024780    -0.16100
C393        C  0.41554025  0.92733342  0.36756911    -0.15300
C394        C  0.39641218  0.90782084  0.34870669     0.08800
C395        C  0.37362107  0.88553897  0.32641600     0.10700
C396        C  0.35417047  0.86653334  0.30733701    -0.16100
C397        C  0.30716881  0.81945162  0.30663450    -0.15300
C398        C  0.28494949  0.79689877  0.31638538     0.08800
C399        C  0.25778284  0.76932885  0.31673983     0.10700
C400        C  0.23539692  0.74673456  0.30748575    -0.16100
C401        C  0.18854998  0.69942498  0.30888855    -0.15300
C402        C  0.16996971  0.67971081  0.32819159     0.08800
C403        C  0.14796190  0.65657898  0.35051018     0.10700
C404        C  0.12827225  0.63736272  0.36914903    -0.16100
C405        C  0.18954461  0.74667837  0.26103122    -0.15300
C406        C  0.18038467  0.76908374  0.23810902     0.08800
C407        C  0.18029739  0.79632994  0.21015474     0.10700
C408        C  0.18931854  0.81875892  0.18719930    -0.16100
C409        C  0.23492718  0.86491340  0.18687999    -0.15300
C410        C  0.25725380  0.87449751  0.20957094     0.08800
C411        C  0.28452152  0.87463452  0.23730143     0.10700
C412        C  0.30693112  0.86529308  0.26001754    -0.16100
C413        C  0.18804825  0.86598383  0.13931140    -0.15300
C414        C  0.16935281  0.88562136  0.12003478     0.08800
C415        C  0.14723793  0.90867091  0.09772384     0.10700
C416        C  0.12750417  0.92783811  0.07907221    -0.16100
C417        C  0.35274017  0.74639515  0.18760815    -0.15300
C418        C  0.36214747  0.76904386  0.21009528     0.08800
C419        C  0.36214534  0.79671206  0.23748289     0.10700
C420        C  0.35274912  0.81933713  0.25999889    -0.16100
C421        C  0.30700088  0.70037735  0.18778209    -0.15300
C422        C  0.28470415  0.69100880  0.21059854     0.08800
C423        C  0.25755210  0.69111061  0.23843964     0.10700
C424        C  0.23528398  0.70065391  0.26120449    -0.16100
C425        C  0.30698897  0.74620089  0.14114517    -0.15300
C426        C  0.28468679  0.76873170  0.13152406     0.08800
C427        C  0.25746385  0.79625614  0.13130600     0.10700
C428        C  0.23505062  0.81880270  0.14062451    -0.16100
C429        C  0.62613795  0.42693655  0.08031367    -0.15300
C430        C  0.64530819  0.40743339  0.09913637     0.08800
C431        C  0.66816340  0.38521338  0.12141483     0.10700
C432        C  0.68765214  0.36628098  0.14052317    -0.16100
C433        C  0.62592190  0.63813234  0.86773991    -0.15300
C434        C  0.64501618  0.65764106  0.84885459     0.08800
C435        C  0.66779933  0.67985035  0.82650597     0.10700
C436        C  0.68726197  0.69878235  0.80737927    -0.16100
C437        C  0.62610063  0.63796138  0.08045388    -0.15300
C438        C  0.64522189  0.65748989  0.09930608     0.08800
C439        C  0.66800842  0.67977011  0.12160344     0.10700
C440        C  0.68745827  0.69876259  0.14069801    -0.16100
C441        C  0.41565210  0.63823535  0.86781781    -0.15300
C442        C  0.39658244  0.65785294  0.84901971     0.08800
C443        C  0.37382321  0.68020133  0.82678391     0.10700
C444        C  0.35438635  0.69921758  0.80771320    -0.16100
C445        C  0.62597289  0.42688012  0.86775961    -0.15300
C446        C  0.64512676  0.40740875  0.84889906     0.08800
C447        C  0.66798988  0.38526101  0.82657778     0.10700
C448        C  0.68749589  0.36637619  0.80745227    -0.16100
C449        C  0.41541253  0.63803936  0.08035453    -0.15300
C450        C  0.39629493  0.65766119  0.09911549     0.08800
C451        C  0.37350888  0.68007139  0.12128723     0.10700
C452        C  0.35407312  0.69915159  0.14031051    -0.16100
C453        C  0.41566272  0.42671216  0.86782244    -0.15300
C454        C  0.39653585  0.40713459  0.84904163     0.08800
C455        C  0.37369036  0.38485834  0.82682485     0.10700
C456        C  0.35419645  0.36590449  0.80775216    -0.16100
C457        C  0.23541065  0.36470942  0.68687986    -0.15300
C458        C  0.25769507  0.37423198  0.70963659     0.08800
C459        C  0.28485088  0.37427880  0.73747274     0.10700
C460        C  0.30713350  0.36484647  0.76027498    -0.16100
C461        C  0.12828873  0.42808296  0.57912639    -0.15300
C462        C  0.14798372  0.40884510  0.59773684     0.08800
C463        C  0.16999088  0.38568395  0.62002299     0.10700
C464        C  0.18858779  0.36595211  0.63928961    -0.16100
C465        C  0.23523079  0.24625790  0.80743407    -0.15300
C466        C  0.25763885  0.26881362  0.81673800     0.08800
C467        C  0.28483560  0.29635857  0.81646284     0.10700
C468        C  0.30710628  0.31890697  0.80681436    -0.16100
C469        C  0.18974399  0.31860627  0.68707295    -0.15300
C470        C  0.18065156  0.29614224  0.70996833     0.08800
C471        C  0.18057347  0.26884539  0.73788000     0.10700
C472        C  0.18955124  0.24637659  0.76081715    -0.16100
C473        C  0.12758150  0.13718607  0.86878910    -0.15300
C474        C  0.14734841  0.15636809  0.85018353     0.08800
C475        C  0.16949126  0.17944100  0.82791773     0.10700
C476        C  0.18820439  0.19909447  0.80867158    -0.16100
C477        C  0.35282856  0.24604272  0.68790626    -0.15300
C478        C  0.36229458  0.26862239  0.71042623     0.08800
C479        C  0.36231540  0.29623794  0.73784793     0.10700
C480        C  0.35286683  0.31882697  0.76036529    -0.16100
C481        C  0.30719803  0.24598694  0.64132742    -0.15300
C482        C  0.28500370  0.26855254  0.63156287     0.08800
C483        C  0.25786219  0.29613679  0.63120988     0.10700
C484        C  0.23548738  0.31871396  0.64051845    -0.16100
C485        C  0.30702057  0.20007669  0.68790123    -0.15300
C486        C  0.28467040  0.19065077  0.71064048     0.08800
C487        C  0.25744863  0.19067580  0.73841599     0.10700
C488        C  0.23512656  0.20019668  0.76113798    -0.16100
C489        C  0.41567711  0.13835805  0.58029365    -0.15300
C490        C  0.39653752  0.15785895  0.59913367     0.08800
C491        C  0.37369432  0.18004840  0.62142841     0.10700
C492        C  0.35420015  0.19895961  0.64053578    -0.16100
C493        C  0.12822143  0.42809850  0.36908341    -0.15300
C494        C  0.14786428  0.40887197  0.35040543     0.08800
C495        C  0.16980841  0.38572662  0.32803918     0.10700
C496        C  0.18835021  0.36599442  0.30871786    -0.16100
C497        C  0.18934819  0.31860368  0.26098456    -0.15300
C498        C  0.18019311  0.29611922  0.23813553     0.08800
C499        C  0.18010484  0.26879385  0.21025537     0.10700
C500        C  0.18912928  0.24631124  0.18735089    -0.16100
C501        C  0.12744710  0.13717020  0.07916068    -0.15300
C502        C  0.14715777  0.15632613  0.09785538     0.08800
C503        C  0.16924118  0.17936062  0.12022237     0.10700
C504        C  0.18790922  0.19900058  0.13953012    -0.16100
C505        C  0.30702529  0.24606473  0.30680913    -0.15300
C506        C  0.28481047  0.26864800  0.31649482     0.08800
C507        C  0.25763580  0.29620602  0.31674789     0.10700
C508        C  0.23523144  0.31874459  0.30740954    -0.16100
C509        C  0.30676181  0.20010614  0.26030057    -0.15300
C510        C  0.28435257  0.19068011  0.23761614     0.08800
C511        C  0.25708371  0.19068699  0.20988430     0.10700
C512        C  0.23475216  0.20017325  0.18715544    -0.16100
C513        C  0.35401890  0.19898181  0.30760390    -0.15300
C514        C  0.37350926  0.18002123  0.32668190     0.08800
C515        C  0.39636003  0.15777332  0.34893496     0.10700
C516        C  0.41552784  0.13826130  0.36775023    -0.16100
C517        C  0.35259380  0.24605390  0.26017053    -0.15300
C518        C  0.36200417  0.26862651  0.23761295     0.08800
C519        C  0.36200111  0.29622966  0.21016734     0.10700
C520        C  0.35257291  0.31880693  0.18762257    -0.16100
C521        C  0.30680864  0.36480203  0.18762454    -0.15300
C522        C  0.28448457  0.37422749  0.21038996     0.08800
C523        C  0.25730801  0.37418444  0.23820769     0.10700
C524        C  0.23504281  0.36468402  0.26099323    -0.16100
C525        C  0.30683467  0.31881347  0.14115078    -0.15300
C526        C  0.28453881  0.29624386  0.13160377     0.08800
C527        C  0.25731735  0.26871645  0.13145849     0.10700
C528        C  0.23489929  0.24619020  0.14081564    -0.16100
C529        C  0.35391203  0.36587207  0.14017538    -0.15300
C530        C  0.37340020  0.38487647  0.12113263     0.08800
C531        C  0.39626244  0.40721173  0.09897034     0.10700
C532        C  0.41542995  0.42680106  0.08023082    -0.16100
loop_ 
_geom_bond_atom_site_label_1 
_geom_bond_atom_site_label_2 
_geom_bond_distance 
_geom_bond_site_symmetry_2 
_ccdc_geom_bond_type 
C1          C520   1.468       .  S
C1          C521   1.469       .  S
C1          C525   1.469       .  S
C1          C529   1.467       .  S
C2          C505   1.469       .  S
C2          C509   1.469       .  S
C2          C513   1.467       .  S
C2          C517   1.468       .  S
C3          C500   1.471       .  S
C3          C504   1.470       .  S
C3          C512   1.469       .  S
C3          C528   1.470       .  S
C4          C496   1.469       .  S
C4          C497   1.471       .  S
C4          C508   1.469       .  S
C4          C524   1.468       .  S
C5          C477   1.468       .  S
C5          C481   1.469       .  S
C5          C485   1.469       .  S
C5          C492   1.466       .  S
C6          C465   1.469       .  S
C6          C472   1.472       .  S
C6          C476   1.470       .  S
C6          C488   1.469       .  S
C7          C457   1.468       .  S
C7          C464   1.470       .  S
C7          C469   1.472       .  S
C7          C484   1.469       .  S
C8          C456   1.466       .  S
C8          C460   1.469       .  S
C8          C468   1.469       .  S
C8          C480   1.468       .  S
N9           N10   1.321       .  A
N9           N15   1.317       .  A
N9          Mn38   2.205       .  S
N10          C17   1.351       .  A
N11          N13   1.317       .  A
N11          N12   1.321       .  A
N11         Mn27   2.204       .  S
N12          C18   1.351       .  A
N13          N14   1.321       .  A
N13         Mn38   2.205       .  S
N14          C18   1.351       .  A
N15          N16   1.321       .  A
N15         Mn27   2.204       .  S
N16          C17   1.351       .  A
C17         C453   1.437       .  S
C18         C441   1.437       .  S
N19          N25   1.317       .  A
N19          N20   1.321       .  A
N19         Mn49   2.207       .  S
N20          C28   1.351       .  A
N21          N22   1.321       .  A
N21          N23   1.317       .  A
N21         Mn27   2.204   1_554  S
N22          C29   1.350       .  A
N23          N24   1.321       .  A
N23         Mn49   2.207       .  S
N24          C29   1.351       .  A
N25          N26   1.321       .  A
N25         Mn27   2.204   1_554  S
N26          C28   1.351       .  A
Mn27        Cl51   2.548       .  S
C28         C449   1.438       .  S
C29         C532   1.438       .  S
N30          N31   1.321       .  A
N30          N36   1.317       .  A
N30         Mn38   2.205       .  S
N31          C39   1.351       .  A
N32          N34   1.317       .  A
N32          N33   1.321       .  A
N32         Mn50   2.204       .  S
N33          C40   1.350       .  A
N34          N35   1.321       .  A
N34         Mn38   2.205       .  S
N35          C40   1.351       .  A
N36          N37   1.321       .  A
N36         Mn50   2.204       .  S
N37          C39   1.351       .  A
Mn38        Cl51   2.552       .  S
C39         C433   1.437       .  S
C40         C445   1.437       .  S
N41          N42   1.321       .  A
N41          N47   1.317       .  A
N41         Mn49   2.206       .  S
N42          C52   1.351       .  A
N43          N44   1.321       .  A
N43          N45   1.317       .  A
N43         Mn50   2.204   1_554  S
N44          C53   1.351       .  A
N45          N46   1.321       .  A
N45         Mn49   2.206       .  S
N46          C53   1.351       .  A
N47          N48   1.321       .  A
N47         Mn50   2.204   1_554  S
N48          C52   1.350       .  A
Mn49        Cl51   2.552   1_554  S
Mn50        Cl51   2.548       .  S
C52         C429   1.438       .  S
C53         C437   1.438       .  S
C54         C417   1.468       .  S
C54         C421   1.469       .  S
C54         C425   1.469       .  S
C54         C452   1.467       .  S
C55         C408   1.471       .  S
C55         C409   1.469       .  S
C55         C413   1.470       .  S
C55         C428   1.470       .  S
C56         C400   1.469       .  S
C56         C401   1.470       .  S
C56         C405   1.471       .  S
C56         C424   1.468       .  S
C57         C396   1.467       .  S
C57         C397   1.469       .  S
C57         C412   1.469       .  S
C57         C420   1.468       .  S
N58          N59   1.321       .  A
N58          N64   1.317       .  A
N58         Mn87   2.205       .  S
N59          C66   1.351       .  A
N60          N62   1.317       .  A
N60          N61   1.321       .  A
N60         Mn76   2.204   1_565  S
N61          C67   1.351       .  A
N62          N63   1.321       .  A
N62         Mn87   2.205   1_565  S
N63          C67   1.351       .  A
N64          N65   1.321       .  A
N64         Mn76   2.204       .  S
N65          C66   1.350       .  A
C66         C489   1.437       .  S
C67         C385   1.437       .  S
N68          N74   1.317       .  A
N68          N69   1.321       .  A
N68         Mn98   2.206   1_565  S
N69          C77   1.351       .  A
N70          N71   1.321       .  A
N70          N72   1.317       .  A
N70         Mn76   2.204       .  S
N71          C78   1.350       .  A
N72          N73   1.321       .  A
N72         Mn98   2.206       .  S
N73          C78   1.351       .  A
N74          N75   1.321       .  A
N74         Mn76   2.204   1_565  S
N75          C77   1.351       .  A
Mn76       Cl100   2.548       .  S
C77         C393   1.438       .  S
C78         C516   1.438       .  S
N79          N80   1.321       .  A
N79          N85   1.317       .  A
N79         Mn87   2.205   1_565  S
N80          C88   1.351       .  A
N81          N83   1.317       .  A
N81          N82   1.321       .  A
N81         Mn99   2.204       .  S
N82          C89   1.350       .  A
N83          N84   1.321       .  A
N83         Mn87   2.205       .  S
N84          C89   1.351       .  A
N85          N86   1.321       .  A
N85         Mn99   2.204   1_565  S
N86          C88   1.351       .  A
Mn87       Cl100   2.552       .  S
C88         C377   1.437       .  S
C89         C392   1.437       .  S
N90          N91   1.321       .  A
N90          N96   1.317       .  A
N90         Mn98   2.206       .  S
N91         C101   1.351       .  A
N92          N93   1.321       .  A
N92          N94   1.317       .  A
N92         Mn99   2.204   1_565  S
N93         C102   1.351       .  A
N94          N95   1.321       .  A
N94         Mn98   2.207   1_565  S
N95         C102   1.351       .  A
N96          N97   1.321       .  A
N96         Mn99   2.204       .  S
N97         C101   1.350       .  A
Mn98       Cl100   2.552       .  S
Mn99       Cl100   2.548       .  S
C101        C373   1.438       .  S
C102        C381   1.438       .  S
C103        C361   1.468       .  S
C103        C368   1.469       .  S
C103        C369   1.469       .  S
C103        C448   1.466       .  S
C104        C352   1.469       .  S
C104        C356   1.472       .  S
C104        C357   1.470       .  S
C104        C372   1.468       .  S
C105        C345   1.469       .  S
C105        C349   1.469       .  S
C105        C364   1.468       .  S
C105        C389   1.466       .  S
C106        C341   1.470       .  S
C106        C348   1.468       .  S
C106        C353   1.471       .  S
C106        C365   1.469       .  S
C107        C329   1.469       .  S
C107        C336   1.469       .  S
C107        C337   1.468       .  S
C107        C444   1.467       .  S
C108        C321   1.469       .  S
C108        C325   1.469       .  S
C108        C340   1.468       .  S
C108        C388   1.466       .  S
C109        C316   1.471       .  S
C109        C317   1.470       .  S
C109        C324   1.469       .  S
C109        C332   1.468       .  S
C110        C309   1.470       .  S
C110        C313   1.471       .  S
C110        C328   1.468       .  S
C110        C333   1.469       .  S
C111        C297   1.468       .  S
C111        C301   1.469       .  S
C111        C305   1.469       .  S
C111        C384   1.467       .  S
C112        C285   1.469       .  S
C112        C292   1.471       .  S
C112        C293   1.470       .  S
C112        C308   1.469       .  S
C113        C281   1.469       .  S
C113        C288   1.469       .  S
C113        C300   1.468       .  S
C113        C440   1.467       .  S
C114        C277   1.469       .  S
C114        C284   1.469       .  S
C114        C289   1.471       .  S
C114        C304   1.468       .  S
C115        C265   1.468       .  S
C115        C272   1.469       .  S
C115        C273   1.469       .  S
C115        C436   1.466       .  S
C116        C253   1.469       .  S
C116        C260   1.471       .  S
C116        C264   1.470       .  S
C116        C269   1.468       .  S
C117        C249   1.469       .  S
C117        C256   1.469       .  S
C117        C268   1.468       .  S
C117        C380   1.467       .  S
C118        C248   1.469       .  S
C118        C252   1.468       .  S
C118        C257   1.471       .  S
C118        C276   1.469       .  S
N119        N120   1.322       .  A
N119        N125   1.317       .  A
N119       Mn148   2.209       .  S
N120        C127   1.352       .  A
N121        N123   1.317       .  A
N121        N122   1.321       .  A
N121       Mn137   2.206   1_654  S
N122        C128   1.351       .  A
N123        N124   1.322       .  A
N123       Mn148   2.209   1_655  S
N124        C128   1.352       .  A
N125        N126   1.321       .  A
N125       Mn137   2.206   1_554  S
N126        C127   1.351       .  A
C127        C501   1.440       .  S
C128        C244   1.440       .  S
N129        N135   1.317       .  A
N129        N130   1.322       .  A
N129       Mn159   2.209   1_655  S
N130        C138   1.352       .  A
N131        N132   1.321       .  A
N131        N133   1.317       .  A
N131       Mn137   2.206       .  S
N132        C139   1.351       .  A
N133        N134   1.322       .  A
N133       Mn159   2.209       .  S
N134        C139   1.352       .  A
N135        N136   1.321       .  A
N135       Mn137   2.206   1_655  S
N136        C138   1.351       .  A
Mn137      Cl161   2.548       .  S
C138        C344   1.440       .  S
C139        C473   1.440       .  S
N140        N141   1.322       .  A
N140        N146   1.317       .  A
N140       Mn148   2.209   1_665  S
N141        C149   1.352       .  A
N142        N144   1.317       .  A
N142        N143   1.321       .  A
N142       Mn160   2.206   1_554  S
N143        C150   1.351       .  A
N144        N145   1.322       .  A
N144       Mn148   2.209   1_565  S
N145        C150   1.352       .  A
N146        N147   1.321       .  A
N146       Mn160   2.206   1_654  S
N147        C149   1.351       .  A
Mn148      Cl161   2.553   1_554  S
C149        C280   1.440       .  S
C150        C416   1.440       .  S
N151        N152   1.322       .  A
N151        N157   1.317       .  A
N151       Mn159   2.209   1_565  S
N152        C162   1.352       .  A
N153        N154   1.321       .  A
N153        N155   1.317       .  A
N153       Mn160   2.206   1_655  S
N154        C163   1.351       .  A
N155        N156   1.322       .  A
N155       Mn159   2.209   1_665  S
N156        C163   1.352       .  A
N157        N158   1.321       .  A
N157       Mn160   2.206       .  S
N158        C162   1.351       .  A
Mn159      Cl161   2.553       .  S
Mn160      Cl161   2.548   1_565  S
C162        C312   1.440       .  S
C163        C245   1.439       .  S
C164        C229   1.468       .  S
C164        C233   1.469       .  S
C164        C240   1.469       .  S
C164        C376   1.467       .  S
C165        C224   1.469       .  S
C165        C228   1.471       .  S
C165        C237   1.468       .  S
C165        C241   1.470       .  S
C166        C217   1.469       .  S
C166        C221   1.469       .  S
C166        C232   1.468       .  S
C166        C432   1.467       .  S
C167        C216   1.470       .  S
C167        C220   1.469       .  S
C167        C225   1.471       .  S
C167        C236   1.469       .  S
N168        N169   1.322       .  A
N168        N174   1.317       .  A
N168       Mn197   2.209       .  S
N169        C176   1.352       .  A
N170        N172   1.317       .  A
N170        N171   1.321       .  A
N170       Mn186   2.206   1_655  S
N171        C177   1.351       .  A
N172        N173   1.322       .  A
N172       Mn197   2.209   1_655  S
N173        C177   1.352       .  A
N174        N175   1.321       .  A
N174       Mn186   2.206       .  S
N175        C176   1.351       .  A
C176        C493   1.440       .  S
C177        C213   1.440       .  S
N178        N184   1.317       .  A
N178        N179   1.322       .  A
N178       Mn208   2.209   1_655  S
N179        C187   1.352       .  A
N180        N181   1.321       .  A
N180        N182   1.317       .  A
N180       Mn186   2.206       .  S
N181        C188   1.351       .  A
N182        N183   1.322       .  A
N182       Mn208   2.209       .  S
N183        C188   1.352       .  A
N184        N185   1.321       .  A
N184       Mn186   2.206   1_655  S
N185        C187   1.351       .  A
Mn186      Cl210   2.548       .  S
C187        C360   1.440       .  S
C188        C461   1.440       .  S
N189        N190   1.322       .  A
N189        N195   1.317       .  A
N189       Mn197   2.209   1_655  S
N190        C198   1.352       .  A
N191        N193   1.317       .  A
N191        N192   1.321       .  A
N191       Mn209   2.206       .  S
N192        C199   1.351       .  A
N193        N194   1.322       .  A
N193       Mn197   2.209       .  S
N194        C199   1.352       .  A
N195        N196   1.321       .  A
N195       Mn209   2.206   1_655  S
N196        C198   1.351       .  A
Mn197      Cl210   2.553       .  S
C198        C296   1.440       .  S
C199        C404   1.440       .  S
N200        N201   1.322       .  A
N200        N206   1.317       .  A
N200       Mn208   2.209       .  S
N201        C211   1.352       .  A
N202        N203   1.321       .  A
N202        N204   1.317       .  A
N202       Mn209   2.206   1_655  S
N203        C212   1.351       .  A
N204        N205   1.322       .  A
N204       Mn208   2.209   1_655  S
N205        C212   1.352       .  A
N206        N207   1.321       .  A
N206       Mn209   2.206       .  S
N207        C211   1.351       .  A
Mn208      Cl210   2.553       .  S
Mn209      Cl210   2.548       .  S
C211        C320   1.440       .  S
C212        C261   1.440       .  S
C213        C214   1.208       .  T
C214        C215   1.416       .  S
C215        C216   1.209       .  T
C217        C218   1.207       .  T
C218        C219   1.411       .  S
C219        C220   1.207       .  T
C221        C222   1.207       .  T
C222        C223   1.412       .  S
C223        C224   1.207       .  T
C225        C226   1.209       .  T
C226        C227   1.415       .  S
C227        C228   1.209       .  T
C229        C230   1.207       .  T
C230        C231   1.411       .  S
C231        C232   1.207       .  T
C233        C234   1.207       .  T
C234        C235   1.412       .  S
C235        C236   1.207       .  T
C237        C238   1.207       .  T
C238        C239   1.411       .  S
C239        C240   1.207       .  T
C241        C242   1.209       .  T
C242        C243   1.416       .  S
C243        C244   1.208       .  T
C245        C246   1.208       .  T
C246        C247   1.416       .  S
C247        C248   1.209       .  T
C249        C250   1.207       .  T
C250        C251   1.411       .  S
C251        C252   1.207       .  T
C253        C254   1.207       .  T
C254        C255   1.412       .  S
C255        C256   1.207       .  T
C257        C258   1.209       .  T
C258        C259   1.415       .  S
C259        C260   1.209       .  T
C261        C262   1.208       .  T
C262        C263   1.416       .  S
C263        C264   1.209       .  T
C265        C266   1.207       .  T
C266        C267   1.411       .  S
C267        C268   1.207       .  T
C269        C270   1.207       .  T
C270        C271   1.411       .  S
C271        C272   1.207       .  T
C273        C274   1.207       .  T
C274        C275   1.412       .  S
C275        C276   1.207       .  T
C277        C278   1.209       .  T
C278        C279   1.416       .  S
C279        C280   1.208       .  T
C281        C282   1.207       .  T
C282        C283   1.412       .  S
C283        C284   1.207       .  T
C285        C286   1.207       .  T
C286        C287   1.411       .  S
C287        C288   1.207       .  T
C289        C290   1.209       .  T
C290        C291   1.415       .  S
C291        C292   1.209       .  T
C293        C294   1.209       .  T
C294        C295   1.416       .  S
C295        C296   1.208       .  T
C297        C298   1.207       .  T
C298        C299   1.411       .  S
C299        C300   1.207       .  T
C301        C302   1.207       .  T
C302        C303   1.411       .  S
C303        C304   1.207       .  T
C305        C306   1.207       .  T
C306        C307   1.412       .  S
C307        C308   1.208       .  T
C309        C310   1.209       .  T
C310        C311   1.416       .  S
C311        C312   1.208       .  T
C313        C314   1.209       .  T
C314        C315   1.415       .  S
C315        C316   1.209       .  T
C317        C318   1.209       .  T
C318        C319   1.416       .  S
C319        C320   1.208       .  T
C321        C322   1.207       .  T
C322        C323   1.412       .  S
C323        C324   1.207       .  T
C325        C326   1.207       .  T
C326        C327   1.411       .  S
C327        C328   1.207       .  T
C329        C330   1.207       .  T
C330        C331   1.411       .  S
C331        C332   1.207       .  T
C333        C334   1.207       .  T
C334        C335   1.412       .  S
C335        C336   1.207       .  T
C337        C338   1.207       .  T
C338        C339   1.411       .  S
C339        C340   1.206       .  T
C341        C342   1.209       .  T
C342        C343   1.416       .  S
C343        C344   1.208       .  T
C345        C346   1.207       .  T
C346        C347   1.411       .  S
C347        C348   1.207       .  T
C349        C350   1.207       .  T
C350        C351   1.412       .  S
C351        C352   1.207       .  T
C353        C354   1.209       .  T
C354        C355   1.415       .  S
C355        C356   1.209       .  T
C357        C358   1.209       .  T
C358        C359   1.416       .  S
C359        C360   1.208       .  T
C361        C362   1.206       .  T
C362        C363   1.410       .  S
C363        C364   1.206       .  T
C365        C366   1.207       .  T
C366        C367   1.412       .  S
C367        C368   1.207       .  T
C369        C370   1.207       .  T
C370        C371   1.411       .  S
C371        C372   1.207       .  T
C373        C374   1.207       .  T
C374        C375   1.414       .  S
C375        C376   1.207       .  T
C377        C378   1.207       .  T
C378        C379   1.413       .  S
C379        C380   1.207       .  T
C381        C382   1.207       .  T
C382        C383   1.414       .  S
C383        C384   1.207       .  T
C385        C386   1.206       .  T
C386        C387   1.413       .  S
C387        C388   1.207       .  T
C389        C390   1.207       .  T
C390        C391   1.413       .  S
C391        C392   1.206       .  T
C393        C394   1.207       .  T
C394        C395   1.414       .  S
C395        C396   1.207       .  T
C397        C398   1.207       .  T
C398        C399   1.412       .  S
C399        C400   1.207       .  T
C401        C402   1.209       .  T
C402        C403   1.416       .  S
C403        C404   1.208       .  T
C405        C406   1.209       .  T
C406        C407   1.415       .  S
C407        C408   1.209       .  T
C409        C410   1.207       .  T
C410        C411   1.411       .  S
C411        C412   1.207       .  T
C413        C414   1.209       .  T
C414        C415   1.416       .  S
C415        C416   1.208       .  T
C417        C418   1.207       .  T
C418        C419   1.411       .  S
C419        C420   1.207       .  T
C421        C422   1.207       .  T
C422        C423   1.411       .  S
C423        C424   1.207       .  T
C425        C426   1.207       .  T
C426        C427   1.412       .  S
C427        C428   1.208       .  T
C429        C430   1.207       .  T
C430        C431   1.413       .  S
C431        C432   1.207       .  T
C433        C434   1.206       .  T
C434        C435   1.413       .  S
C435        C436   1.207       .  T
C437        C438   1.207       .  T
C438        C439   1.414       .  S
C439        C440   1.207       .  T
C441        C442   1.206       .  T
C442        C443   1.413       .  S
C443        C444   1.207       .  T
C445        C446   1.206       .  T
C446        C447   1.413       .  S
C447        C448   1.207       .  T
C449        C450   1.207       .  T
C450        C451   1.414       .  S
C451        C452   1.207       .  T
C453        C454   1.206       .  T
C454        C455   1.413       .  S
C455        C456   1.207       .  T
C457        C458   1.207       .  T
C458        C459   1.411       .  S
C459        C460   1.207       .  T
C461        C462   1.208       .  T
C462        C463   1.416       .  S
C463        C464   1.209       .  T
C465        C466   1.207       .  T
C466        C467   1.412       .  S
C467        C468   1.207       .  T
C469        C470   1.209       .  T
C470        C471   1.415       .  S
C471        C472   1.209       .  T
C473        C474   1.208       .  T
C474        C475   1.416       .  S
C475        C476   1.209       .  T
C477        C478   1.206       .  T
C478        C479   1.410       .  S
C479        C480   1.206       .  T
C481        C482   1.207       .  T
C482        C483   1.412       .  S
C483        C484   1.207       .  T
C485        C486   1.207       .  T
C486        C487   1.411       .  S
C487        C488   1.207       .  T
C489        C490   1.206       .  T
C490        C491   1.413       .  S
C491        C492   1.207       .  T
C493        C494   1.208       .  T
C494        C495   1.416       .  S
C495        C496   1.209       .  T
C497        C498   1.209       .  T
C498        C499   1.415       .  S
C499        C500   1.209       .  T
C501        C502   1.208       .  T
C502        C503   1.416       .  S
C503        C504   1.209       .  T
C505        C506   1.207       .  T
C506        C507   1.412       .  S
C507        C508   1.207       .  T
C509        C510   1.207       .  T
C510        C511   1.412       .  S
C511        C512   1.207       .  T
C513        C514   1.207       .  T
C514        C515   1.413       .  S
C515        C516   1.207       .  T
C517        C518   1.207       .  T
C518        C519   1.411       .  S
C519        C520   1.207       .  T
C521        C522   1.207       .  T
C522        C523   1.411       .  S
C523        C524   1.207       .  T
C525        C526   1.207       .  T
C526        C527   1.412       .  S
C527        C528   1.208       .  T
C529        C530   1.207       .  T
C530        C531   1.414       .  S
C531        C532   1.207       .  T
