geometry optimzed in LAMMPS
_audit_creation_date              2020-11-30 
_audit_creation_method            'lammps2cif' 
_symmetry_space_group_name_H-M    'P1' 
_symmetry_Int_Tables_number       1 
_symmetry_cell_setting            triclinic 
loop_ 
_symmetry_equiv_pos_as_xyz 
  x,y,z 
_cell_length_a                    32.87565047444959 
_cell_length_b                    32.39391555060264 
_cell_length_c                    32.43407334932066 
_cell_angle_alpha                 90.03472181152964 
_cell_angle_beta                  89.92524671324513 
_cell_angle_gamma                 90.22278157708756 
loop_ 
_atom_site_label 
_atom_site_type_symbol 
_atom_site_fract_x 
_atom_site_fract_y 
_atom_site_fract_z 
_atom_site_charge 
C1          C  0.46654556  0.36439301  0.24517325    -0.01930
C2          C  0.47114458  0.23459618  0.37693268    -0.01930
C3          C  0.46758520  0.10067456  0.24585203    -0.01930
C4          C  0.45573245  0.23638730  0.11715157    -0.01930
C5          C  0.19131627  0.49091912  0.38246701    -0.01930
C6          C  0.32624785  0.48771353  0.25645824    -0.01930
C7          C  0.20355215  0.48780139  0.11887927    -0.01930
C8          C  0.06737450  0.48829963  0.24265797    -0.01930
C9          C  0.33288329  0.23284651  0.50316339    -0.01930
C10         C  0.20837120  0.36052747  0.51468688    -0.01930
C11         C  0.07459540  0.22883859  0.51956129    -0.01930
C12         C  0.20090615  0.09848029  0.51035740    -0.01930
C13         C  0.32957199  0.97109928  0.24785298    -0.01930
C14         C  0.19359363  0.96595109  0.37710684    -0.01930
C15         C  0.20559478  0.96041376  0.11360210    -0.01930
C16         C  0.07178984  0.96890944  0.24201754    -0.01930
C17         C  0.94171078  0.22481161  0.38779078    -0.01930
C18         C  0.93663047  0.35538734  0.25114868    -0.01930
C19         C  0.94115119  0.10268738  0.25034991    -0.01930
C20         C  0.93301919  0.23301249  0.11400241    -0.01930
C21         C  0.69335285  0.99272003  0.61353362    -0.01930
C22         C  0.56960602  0.99530087  0.75033780    -0.01930
C23         C  0.82794153  0.98512389  0.73797050    -0.01930
C24         C  0.70399324  0.99306562  0.87644854    -0.01930
C25         C  0.95862653  0.59324235  0.74356041    -0.01930
C26         C  0.95670441  0.72989727  0.61825348    -0.01930
C27         C  0.95593737  0.72801795  0.87291164    -0.01930
C28         C  0.96771471  0.86202138  0.74870516    -0.01930
C29         C  0.82297493  0.72797382  0.00391662    -0.01930
C30         C  0.69442293  0.86277173  0.01298579    -0.01930
C31         C  0.69431244  0.59854036  0.01774055    -0.01930
C32         C  0.56316759  0.73349983  0.01346610    -0.01930
C33         C  0.43801711  0.72365860  0.87612153    -0.01930
C34         C  0.43041358  0.59412222  0.74269402    -0.01930
C35         C  0.44104468  0.86034945  0.75248842    -0.01930
C36         C  0.43010471  0.73153328  0.61789303    -0.01930
C37         C  0.82281943  0.46389385  0.74846689    -0.01930
C38         C  0.69449034  0.46300157  0.61521918    -0.01930
C39         C  0.56872380  0.47030655  0.74702570    -0.01930
C40         C  0.69489529  0.47070390  0.87957886    -0.01930
C41         C  0.69213883  0.85874639  0.48325542    -0.01930
C42         C  0.56399174  0.72237036  0.48741550    -0.01930
C43         C  0.70044610  0.59979939  0.48778844    -0.01930
C44         C  0.82868677  0.73353543  0.48094544    -0.01930
O45         O  0.52953677  0.22960198  0.12642840    -0.57260
C46         C  0.67295203  0.22840075  0.08128898     0.75370
O47         O  0.59650904  0.31933389  0.05469112    -0.58420
C48         C  0.50051127  0.23341098  0.10099645     0.75340
C49         C  0.59470247  0.29615128  0.15117771     0.77730
Cd50       Cd  0.58704011  0.25115780  0.08227329     1.37470
O51         O  0.64613726  0.20002973  0.07591462    -0.57260
O52         O  0.59642531  0.25729732  0.15578316    -0.56070
C53         C  0.59884294  0.30636170  0.01806181     0.77690
O54         O  0.58754327  0.31112737  0.11594601    -0.58440
O55         O  0.65962837  0.26410961  0.08743133    -0.56890
O56         O  0.51153995  0.23752226  0.06358665    -0.56880
O57         O  0.58719632  0.26956653  0.01042526    -0.56050
O58         O  0.65705891  0.39917612  0.28960456    -0.57260
C59         C  0.51236841  0.37565791  0.24932753     0.75370
O60         O  0.61797503  0.41786917  0.17170169    -0.58420
C61         C  0.68391810  0.38440405  0.26518334     0.75340
C62         C  0.60033160  0.32456505  0.18386467     0.77730
Cd63       Cd  0.60085892  0.38789294  0.23705468     1.37460
O64         O  0.53850232  0.34717668  0.24652862    -0.57260
O65         O  0.59715637  0.31489449  0.22174242    -0.56070
C66         C  0.61443052  0.45448541  0.18400210     0.77690
O67         O  0.60655937  0.36172187  0.17383138    -0.58440
O68         O  0.52734563  0.41136207  0.25540021    -0.56890
O69         O  0.67098961  0.36674941  0.23338206    -0.56880
O70         O  0.59923379  0.46061695  0.21951739    -0.56050
O71         O  0.54203648  0.75337568  0.08511630    -0.57260
C72         C  0.53856422  0.71744862  0.22620966     0.75370
O73         O  0.49402000  0.63608637  0.14795889    -0.58420
C74         C  0.54069411  0.72751528  0.05536715     0.75340
C75         C  0.59333606  0.65138230  0.13241185     0.77730
Cd76       Cd  0.52843054  0.69991517  0.13922276     1.37460
O77         O  0.53232714  0.74682936  0.20065745    -0.57260
O78         O  0.59947041  0.68814132  0.14459622    -0.56070
C79         C  0.46373690  0.65381695  0.16378466     0.77690
O80         O  0.55839404  0.64041595  0.12065729    -0.58440
O81         O  0.54364817  0.68199991  0.21110024    -0.56890
O82         O  0.52283744  0.69401579  0.06374931    -0.56880
O83         O  0.45970504  0.69265737  0.15916133    -0.56050
O84         O  0.72404887  0.55771162  0.20269316    -0.57260
C85         C  0.69742851  0.57968364  0.06124528     0.75370
O86         O  0.61449980  0.52232944  0.15905041    -0.58420
C87         C  0.69594697  0.56438174  0.22922189     0.75340
C88         C  0.62366409  0.62076662  0.13474397     0.77730
Cd89       Cd  0.67551631  0.55817016  0.14377453     1.37470
O90         O  0.70418935  0.60259826  0.09210838    -0.57260
O91         O  0.65848817  0.62855795  0.14959202    -0.56070
C92         C  0.63223316  0.48786854  0.16087963     0.77690
O93         O  0.61451175  0.58421305  0.12426461    -0.58440
O94         O  0.69147258  0.54178731  0.06948989    -0.56890
O95         O  0.66075613  0.57088022  0.21558944    -0.56880
O96         O  0.66824659  0.48479541  0.14660219    -0.56050
O97         O  0.18586146  0.67691611  0.09082390    -0.57260
C98         C  0.21150249  0.53081876  0.09871770     0.75370
O99         O  0.29420366  0.62297099  0.03988309    -0.58420
C100        C  0.21111354  0.70367695  0.07700681     0.75340
C101        C  0.27868064  0.62610958  0.14112708     0.77730
Cd102      Cd  0.23162177  0.61645542  0.07490623     1.37460
O103        O  0.18443013  0.55263666  0.08058813    -0.57260
O104        O  0.24231971  0.63844578  0.14463302    -0.56070
C105        C  0.27757954  0.62514957  0.00499851     0.77690
O106        O  0.29096707  0.61150427  0.10726058    -0.58440
O107        O  0.24530431  0.54867908  0.10311864    -0.56890
O108        O  0.24262814  0.68980806  0.06003828    -0.56880
O109        O  0.24060169  0.61363454  0.00129129    -0.56050
O110        O  0.35102322  0.68172541  0.27486639    -0.57260
C111        C  0.34333834  0.53229527  0.24990074     0.75370
O112        O  0.34185568  0.61350375  0.16648012    -0.58420
C113        C  0.35789331  0.70744437  0.24562883     0.75340
C114        C  0.43506542  0.63105967  0.18812205     0.77730
Cd115      Cd  0.36485302  0.61900997  0.23017925     1.37460
O116        O  0.35989510  0.55449826  0.27802803    -0.57260
O117        O  0.43601158  0.63270881  0.22734236    -0.56070
C118        C  0.30645452  0.62624574  0.17417324     0.77690
O119        O  0.40582770  0.61298198  0.17075974    -0.58440
O120        O  0.33942302  0.55011297  0.21567577    -0.56890
O121        O  0.36718875  0.69221658  0.21122519    -0.57310
O122        O  0.29688567  0.63682987  0.21064727    -0.56050
O123        O  0.35901353  0.58922943  0.71843013    -0.57260
C124        C  0.21839958  0.56973494  0.74544983     0.75370
O125        O  0.29600208  0.53470768  0.82802329    -0.58420
C126        C  0.38710476  0.57488060  0.74147410     0.75340
C127        C  0.30785775  0.62958365  0.80945371     0.77730
Cd128      Cd  0.30310829  0.56360622  0.76175059     1.37460
O129        O  0.24259664  0.55893553  0.71641942    -0.57260
O130        O  0.29959589  0.63750234  0.77206157    -0.56070
C131        C  0.28546780  0.50018126  0.81358441     0.77690
O132        O  0.31518238  0.59309522  0.82039641    -0.58440
O133        O  0.23402725  0.58055274  0.77914593    -0.56890
O134        O  0.37588386  0.54645403  0.76555562    -0.56880
O135        O  0.28961883  0.49318844  0.77507451    -0.56050
O136        O  0.36428405  0.72430544  0.86584982    -0.57260
C137        C  0.21965787  0.72090374  0.90928496     0.75370
O138        O  0.31412625  0.64554976  0.87712632    -0.58420
C139        C  0.39302929  0.72286555  0.89182319     0.75340
C140        C  0.29700543  0.64855779  0.97287951     0.77730
Cd141      Cd  0.30679668  0.70382834  0.90943146     1.37460
O142        O  0.24496169  0.75098193  0.91289796    -0.57260
O143        O  0.30960725  0.68509407  0.98032504    -0.56070
C144        C  0.30753280  0.65909672  0.84127723     0.77690
O145        O  0.29649409  0.63597354  0.93607900    -0.58440
O146        O  0.23480767  0.68560068  0.90536453    -0.56890
O147        O  0.38163725  0.71981193  0.92928365    -0.56880
O148        O  0.29999718  0.69711503  0.83574529    -0.56050
O149        O  0.18389945  0.38893821  0.79980309    -0.57260
C150        C  0.20575129  0.37879942  0.94215150     0.75370
O151        O  0.29065573  0.37030803  0.87247017    -0.58420
C152        C  0.21256156  0.38710373  0.77319493     0.75340
C153        C  0.26702842  0.46999789  0.83966878     0.77730
Cd154      Cd  0.23035666  0.39844576  0.85956105     1.37470
O155        O  0.17998201  0.38203922  0.91282808    -0.57260
O156        O  0.22879602  0.47026921  0.84615128    -0.56070
C157        C  0.27954606  0.33447805  0.86190538     0.77690
O158        O  0.28799535  0.44027229  0.85266991    -0.58440
O159        O  0.24079580  0.39291828  0.93448750    -0.56890
O160        O  0.24843397  0.38807778  0.78681140    -0.56880
O161        O  0.24302810  0.32754686  0.85124696    -0.56050
O162        O  0.37154977  0.20390507  0.79137580    -0.57260
C163        C  0.34879040  0.22591190  0.93588505     0.75370
O164        O  0.40092164  0.31805147  0.84128518    -0.58420
C165        C  0.36634348  0.23287558  0.76506270     0.75340
C166        C  0.30941734  0.30370304  0.86017884     0.77730
Cd167      Cd  0.37115662  0.25225071  0.85263134     1.37460
O168        O  0.32584362  0.22399766  0.90470723    -0.57260
O169        O  0.30200463  0.26834393  0.84509401    -0.56070
C170        C  0.43636017  0.30352991  0.83886866     0.77690
O171        O  0.34492880  0.31293315  0.87209233    -0.58440
O172        O  0.38618136  0.23250240  0.92769458    -0.56890
O173        O  0.36191882  0.26861179  0.77944466    -0.56880
O174        O  0.44260753  0.26656592  0.85083127    -0.56050
O175        O  0.52709507  0.27997175  0.71740087    -0.57260
C176        C  0.55363599  0.42487523  0.74778290     0.75370
O177        O  0.50206132  0.33094011  0.83314135    -0.58420
C178        C  0.53617799  0.25325955  0.74493528     0.75340
C179        C  0.59544085  0.33526932  0.82218943     0.77730
Cd180      Cd  0.53455399  0.33853063  0.76792243     1.37460
O181        O  0.57924495  0.39571730  0.74728416    -0.57260
O182        O  0.60543541  0.33451522  0.78435691    -0.56070
C183        C  0.46752163  0.32584725  0.81711504     0.77690
O184        O  0.55837604  0.33608266  0.83225953    -0.58440
O185        O  0.51660828  0.41358477  0.75050127    -0.56890
O186        O  0.54769574  0.26679973  0.77916971    -0.56880
O187        O  0.46257646  0.33552250  0.77940174    -0.56050
O188        O  0.69635720  0.39536104  0.87295734    -0.57260
C189        C  0.69437448  0.25418552  0.91867322     0.75370
O190        O  0.60652074  0.33303447  0.95114834    -0.58420
C191        C  0.69393291  0.42601309  0.89710460     0.75340
C192        C  0.62414839  0.33673878  0.85440130     0.77730
Cd193      Cd  0.67221461  0.34083537  0.92040418     1.37470
O194        O  0.72239327  0.28160768  0.92168795    -0.57260
O195        O  0.66172418  0.33038791  0.84852905    -0.56070
C196        C  0.62080748  0.32956624  0.98708072     0.77690
O197        O  0.61122719  0.34523695  0.89014728    -0.58440
O198        O  0.65851372  0.26714621  0.91685534    -0.56890
O199        O  0.68880362  0.41681281  0.93494911    -0.56880
O200        O  0.65761182  0.34050595  0.99336687    -0.56050
O201        O  0.18021375  0.07534718  0.58153921    -0.57260
C202        C  0.20677705  0.06665738  0.72565197     0.75370
O203        O  0.29181188  0.03210017  0.65996433    -0.58420
C204        C  0.20756975  0.07732446  0.55336050     0.75340
C205        C  0.27321444  0.12590601  0.63063994     0.77730
Cd206      Cd  0.22860728  0.05901006  0.63892314     1.37470
O207        O  0.18015461  0.05524147  0.69915719    -0.57260
O208        O  0.23741646  0.13200177  0.64411636    -0.56070
C209        C  0.27994717  0.99518958  0.65890623     0.77690
O210        O  0.28462594  0.09009462  0.62096303    -0.58440
O211        O  0.24093701  0.07741817  0.71156138    -0.56890
O212        O  0.24138160  0.06213009  0.56345411    -0.56880
O213        O  0.24563050  0.98688709  0.64237785    -0.56050
O214        O  0.37316148  0.25404031  0.69320113    -0.57260
C215        C  0.34937560  0.22730315  0.54793944     0.75370
O216        O  0.39465908  0.13799267  0.64975055    -0.58420
C217        C  0.36549315  0.22589872  0.71994169     0.75340
C218        C  0.30303722  0.15690792  0.62876382     0.77730
Cd219      Cd  0.36797971  0.20421999  0.63310770     1.37460
O220        O  0.32612235  0.23330348  0.57859630    -0.57260
O221        O  0.29719689  0.19306036  0.64254329    -0.56070
C222        C  0.43089027  0.15094625  0.64976805     0.77690
O223        O  0.33772119  0.14632762  0.61566612    -0.58440
O224        O  0.38519478  0.21582397  0.55724897    -0.56890
O225        O  0.35713021  0.19062069  0.70609605    -0.56880
O226        O  0.43852036  0.18644738  0.63452480    -0.56050
O227        O  0.53352569  0.18266704  0.76864018    -0.57260
C228        C  0.55238240  0.03963827  0.74930353     0.75370
O229        O  0.49667318  0.12469610  0.65682553    -0.58420
C230        C  0.53333377  0.20847360  0.73878425     0.75340
C231        C  0.59080170  0.11980525  0.66932839     0.77730
Cd232      Cd  0.52875355  0.12140484  0.72217868     1.37460
O233        O  0.51499635  0.04937100  0.75237977    -0.57260
O234        O  0.59774446  0.13331435  0.70535130    -0.56070
C235        C  0.46181887  0.12930478  0.67238642     0.77690
O236        O  0.55564245  0.10695109  0.65987315    -0.58440
O237        O  0.57645142  0.06953459  0.74341955    -0.56890
O238        O  0.53039763  0.19387272  0.70309573    -0.56880
O239        O  0.45662692  0.12082370  0.71043578    -0.56050
O240        O  0.71739923  0.06492168  0.60254072    -0.57260
C241        C  0.68925935  0.20627323  0.58381073     0.75370
O242        O  0.61374588  0.13010577  0.53733515    -0.58420
C243        C  0.69272234  0.03589143  0.59306378     0.75340
C244        C  0.62117560  0.11927498  0.63868623     0.77730
Cd245      Cd  0.67267666  0.12007157  0.57520777     1.37460
O246        O  0.71882300  0.18065130  0.58236898    -0.57260
O247        O  0.65691066  0.13235377  0.64538217    -0.56070
C248        C  0.63362861  0.13869117  0.50518804     0.77690
O249        O  0.61167007  0.10617097  0.60339649    -0.58440
O250        O  0.65380771  0.19167151  0.58213974    -0.56890
O251        O  0.66662567  0.04522960  0.56625157    -0.56880
O252        O  0.67132791  0.12956424  0.50300307    -0.56050
O253        O  0.53969257  0.09447764  0.22200119    -0.57260
C254        C  0.68203970  0.06947300  0.25168573     0.75370
O255        O  0.58191620  0.10008726  0.32654700    -0.58420
C256        C  0.51110968  0.08297809  0.24611946     0.75340
C257        C  0.60739733  0.99829629  0.31480480     0.77730
Cd258      Cd  0.59561912  0.06762271  0.26809801     1.37460
O259        O  0.65686751  0.06448190  0.22190966    -0.57260
O260        O  0.59656943  0.99428883  0.27723158    -0.56070
C261        C  0.59488949  0.13493550  0.31515390     0.77690
O262        O  0.60641582  0.03358036  0.33116758    -0.58440
O263        O  0.66705510  0.07465356  0.28704114    -0.56890
O264        O  0.52193737  0.05987135  0.27557207    -0.56880
O265        O  0.60719961  0.14007792  0.27844505    -0.56050
O266        O  0.65912793  0.26245877  0.42393317    -0.57260
C267        C  0.51414623  0.23674534  0.39589546     0.75370
O268        O  0.57998934  0.15818583  0.37959394    -0.58420
C269        C  0.68455641  0.23523330  0.41151527     0.75340
C270        C  0.61517042  0.16324287  0.47400335     0.77730
Cd271      Cd  0.59911822  0.21610831  0.41059481     1.37460
O272        O  0.54121312  0.26403266  0.38775037    -0.57260
O273        O  0.60257052  0.19954638  0.48208855    -0.56070
C274        C  0.59622203  0.16626248  0.34532935     0.77690
O275        O  0.61455158  0.15061518  0.43739633    -0.58440
O276        O  0.52612856  0.20674538  0.41762605    -0.56890
O277        O  0.66997722  0.20316892  0.39519434    -0.56880
O278        O  0.61400934  0.20072251  0.33989511    -0.56050
O279        O  0.55386562  0.69805857  0.41427642    -0.57260
C280        C  0.53847355  0.72369932  0.27134854     0.75370
O281        O  0.49908324  0.80879130  0.33938808    -0.58420
C282        C  0.54354321  0.72230500  0.44352497     0.75340
C283        C  0.59434068  0.79535045  0.36376141     0.77730
Cd284      Cd  0.52964718  0.74479434  0.35766208     1.37470
O285        O  0.52766057  0.69578666  0.29711967    -0.57260
O286        O  0.60186227  0.75848227  0.35311354    -0.56070
C287        C  0.46359814  0.79420412  0.33720906     0.77690
O288        O  0.55867540  0.80513999  0.37407312    -0.58440
O289        O  0.54792167  0.75834549  0.28612509    -0.56890
O290        O  0.51727549  0.74866886  0.43328402    -0.56880
O291        O  0.45742102  0.75747027  0.35003049    -0.56050
O292        O  0.71555130  0.87297348  0.41135525    -0.57260
C293        C  0.69346152  0.89434362  0.26988823     0.75370
O294        O  0.61103180  0.86370918  0.36879384    -0.58420
C295        C  0.68993503  0.87985590  0.44022369     0.75340
C296        C  0.62551700  0.96455906  0.33661507     0.77730
Cd297      Cd  0.66981186  0.89581116  0.35543559     1.37470
O298        O  0.71996431  0.90267453  0.29757359    -0.57260
O299        O  0.66033114  0.96874937  0.35341460    -0.56070
C300        C  0.62350432  0.82760471  0.36173107     0.77690
O301        O  0.60930072  0.92924700  0.33548151    -0.58440
O302        O  0.65875806  0.88332307  0.28229523    -0.56890
O303        O  0.66106869  0.90380257  0.43077187    -0.56880
O304        O  0.66021602  0.82200904  0.35107937    -0.56050
O305        O  0.33655937  0.89673822  0.22706290    -0.57260
C306        C  0.35677279  0.75287273  0.25097263     0.75370
O307        O  0.39706426  0.81968430  0.33320063    -0.58420
C308        C  0.34745964  0.92649809  0.25046333     0.75340
C309        C  0.29983908  0.84367815  0.31833273     0.77730
Cd310      Cd  0.36459985  0.83966480  0.27099274     1.37470
O311        O  0.37051886  0.77822979  0.22393612    -0.57260
O312        O  0.29402014  0.83196369  0.28146650    -0.56070
C313        C  0.43185419  0.81730455  0.31700781     0.77690
O314        O  0.33491309  0.85442296  0.33028515    -0.58440
O315        O  0.34302196  0.76837304  0.28377560    -0.56890
O316        O  0.37126969  0.91633419  0.27943167    -0.56880
O317        O  0.43709752  0.83241507  0.28104923    -0.56050
O318        O  0.17158576  0.89262212  0.38817079    -0.57260
C319        C  0.20000431  0.75109416  0.40649991     0.75370
O320        O  0.27732443  0.85692958  0.38322401    -0.58420
C321        C  0.19682969  0.92192596  0.39466858     0.75340
C322        C  0.26480534  0.82102549  0.47994423     0.77730
Cd323      Cd  0.21928195  0.83741664  0.41184651     1.37460
O324        O  0.17150262  0.77738779  0.41193798    -0.57260
O325        O  0.22859119  0.83426659  0.48486401    -0.56070
C326        C  0.26883966  0.84283796  0.34805822     0.77690
O327        O  0.28051195  0.82179993  0.44458398    -0.58440
O328        O  0.23537900  0.76515311  0.40123914    -0.56890
O329        O  0.22837393  0.91200273  0.41458267    -0.56880
O330        O  0.23440300  0.82637054  0.34135250    -0.56050
O331        O  0.24271774  0.70919824  0.57914090    -0.57260
C332        C  0.38704431  0.73556716  0.59879691     0.75370
O333        O  0.28911379  0.81854961  0.54726007    -0.58420
C334        C  0.21746410  0.73828156  0.58675275     0.75340
C335        C  0.30660214  0.80432151  0.64670125     0.77730
Cd336      Cd  0.30308566  0.75641879  0.58103627     1.37460
O337        O  0.35738035  0.71220342  0.60931883    -0.57260
O338        O  0.29537354  0.76735071  0.65290518    -0.56070
C339        C  0.28587463  0.80096829  0.51273493     0.77690
O340        O  0.31601381  0.81621540  0.61087409    -0.58440
O341        O  0.37849646  0.76283205  0.57224179    -0.56890
O342        O  0.23220423  0.77348012  0.59386785    -0.56880
O343        O  0.29805966  0.76381706  0.50859077    -0.56050
O344        O  0.36831223  0.85051676  0.74646114    -0.57260
C345        C  0.22776303  0.89271244  0.74771412     0.75370
O346        O  0.30789102  0.92932471  0.66510923    -0.58420
C347        C  0.39710864  0.87632207  0.75002524     0.75340
C348        C  0.30829461  0.83395417  0.67828270     0.77730
Cd349      Cd  0.31295985  0.89698403  0.73003311     1.37470
O350        O  0.25295300  0.89258139  0.77787273    -0.57260
O351        O  0.30342363  0.82516205  0.71611140    -0.56070
C352        C  0.30204393  0.96427524  0.68116026     0.77690
O353        O  0.31502328  0.87072785  0.66746847    -0.58440
O354        O  0.24237660  0.89541214  0.71213973    -0.56890
O355        O  0.38651974  0.91412285  0.75061968    -0.56880
O356        O  0.31089007  0.96974362  0.71908475    -0.56050
O357        O  0.02769366  0.67974018  0.21765362    -0.57260
C358        C  0.04730844  0.53229671  0.24444849     0.75370
O359        O  0.06166248  0.60156038  0.32557839    -0.58420
C360        C  0.03713841  0.70633988  0.24532892     0.75340
C361        C  0.96827132  0.63776014  0.31686955     0.77730
Cd362      Cd  0.03269688  0.61856685  0.26639042     1.37470
O363        O  0.05735702  0.56195567  0.22045267    -0.57260
O364        O  0.96150909  0.62305742  0.28097696    -0.56070
C365        C  0.09732490  0.61187992  0.31560887     0.77690
O366        O  0.00400549  0.63721387  0.33076865    -0.58440
O367        O  0.02119801  0.54194995  0.27150658    -0.56890
O368        O  0.04721264  0.69203818  0.27991492    -0.56880
O369        O  0.10481666  0.62359818  0.27903614    -0.56050
O370        O  0.21521234  0.56389289  0.39185189    -0.57260
C371        C  0.19293672  0.70624724  0.40707367     0.75370
O372        O  0.11351319  0.60615499  0.38365588    -0.58420
C373        C  0.19054662  0.53510522  0.40210661     0.75340
C374        C  0.12352948  0.64411706  0.48195869     0.77730
Cd375      Cd  0.17115545  0.62099332  0.41582350     1.37460
O376        O  0.22007664  0.68021434  0.41805718    -0.57260
O377        O  0.15912384  0.62985126  0.48819241    -0.56070
C378        C  0.12636446  0.61310099  0.34764397     0.77690
O379        O  0.10846395  0.64130750  0.44633574    -0.58440
O380        O  0.15859233  0.69202469  0.39731204    -0.56890
O381        O  0.16450539  0.54559174  0.42876576    -0.56880
O382        O  0.16320765  0.62337009  0.34205630    -0.56050
O383        O  0.14731374  0.76113088  0.58167223    -0.57260
C384        C  0.00083831  0.73016227  0.59934412     0.75370
O385        O  0.09648433  0.64934756  0.54833814    -0.58420
C386        C  0.17303895  0.73200734  0.58711381     0.75340
C387        C  0.09199756  0.66305024  0.64955765     0.77730
Cd388      Cd  0.08746391  0.71235328  0.58359818     1.37460
O389        O  0.02863505  0.75604332  0.60905986    -0.57260
O390        O  0.09507822  0.70128156  0.65758804    -0.56070
C391        C  0.10255369  0.66637839  0.51395530     0.77690
O392        O  0.08604285  0.65153137  0.61298227    -0.58440
O393        O  0.01324493  0.70051781  0.57731783    -0.56890
O394        O  0.15880630  0.69637525  0.59255267    -0.56880
O395        O  0.09395626  0.70456757  0.50987526    -0.56050
O396        O  0.14963926  0.56560507  0.77166534    -0.57260
C397        C  0.00290898  0.57657117  0.74385861     0.75370
O398        O  0.09442752  0.59480215  0.66602271    -0.58420
C399        C  0.17410697  0.56920882  0.74098882     0.75340
C400        C  0.10655882  0.49096636  0.68577365     0.77730
Cd401      Cd  0.08927169  0.56298311  0.72584413     1.37460
O402        O  0.03076369  0.59011413  0.76770018    -0.57260
O403        O  0.10470388  0.49124478  0.72507854    -0.56070
C404        C  0.09383054  0.63133330  0.67950039     0.77690
O405        O  0.09103786  0.52060305  0.66593495    -0.58440
O406        O  0.01500388  0.55178730  0.71623590    -0.56890
O407        O  0.15881453  0.57165248  0.70555053    -0.56880
O408        O  0.09260762  0.63766638  0.71803247    -0.56050
O409        O  0.87016226  0.20186382  0.40428861    -0.57260
C410        C  0.72901742  0.23949009  0.41623138     0.75370
O411        O  0.81039419  0.31243425  0.46541963    -0.58420
C412        C  0.89868257  0.22863724  0.40655707     0.75340
C413        C  0.81626094  0.30402769  0.36466368     0.77730
Cd414      Cd  0.81562460  0.25195870  0.42720058     1.37470
O415        O  0.75319232  0.20856083  0.41615028    -0.57260
O416        O  0.80109757  0.26862469  0.35802281    -0.56070
C417        C  0.79992307  0.29365915  0.49769641     0.77690
O418        O  0.83197849  0.31240383  0.39911281    -0.58440
O419        O  0.74491129  0.27457427  0.42100473    -0.56890
O420        O  0.88891433  0.26226484  0.42364541    -0.56880
O421        O  0.80643488  0.25490755  0.50054588    -0.56050
O422        O  0.87316575  0.39391495  0.23358481    -0.57260
C423        C  0.72821691  0.38875288  0.27122971     0.75370
O424        O  0.82953673  0.37033794  0.34507203    -0.58420
C425        C  0.89689137  0.37854788  0.26084636     0.75340
C426        C  0.80074441  0.47034908  0.32515442     0.77730
Cd427      Cd  0.81471768  0.39980373  0.28498568     1.37470
O428        O  0.75385674  0.38252759  0.24214832    -0.57260
O429        O  0.80803162  0.47236162  0.28659218    -0.56070
C430        C  0.81511659  0.33553285  0.33512036     0.77690
O431        O  0.81046504  0.43855267  0.34502158    -0.58440
O432        O  0.74252556  0.40011834  0.30538409    -0.56890
O433        O  0.88391751  0.37977275  0.29737453    -0.56880
O434        O  0.79950084  0.33009903  0.29984411    -0.56050
O435        O  0.67517249  0.58160982  0.41701187    -0.57260
C436        C  0.70321608  0.56431875  0.27387517     0.75370
O437        O  0.77784099  0.59856128  0.37750150    -0.58420
C438        C  0.70244370  0.57806841  0.44490505     0.75340
C439        C  0.77584922  0.50049306  0.34443417     0.77730
Cd440      Cd  0.72341848  0.56284508  0.35977897     1.37460
O441        O  0.67477153  0.56027145  0.30064702    -0.57260
O442        O  0.73891166  0.49206823  0.35336808    -0.56070
C443        C  0.77043683  0.62984422  0.35587939     0.77690
O444        O  0.78898055  0.53665179  0.34924448    -0.58440
O445        O  0.73891366  0.56805528  0.28724313    -0.56890
O446        O  0.73293587  0.55737595  0.43418523    -0.56880
O447        O  0.73604795  0.63343846  0.33867170    -0.56050
O448        O  0.85884790  0.75212184  0.29053705    -0.57260
C449        C  0.84685999  0.72795931  0.43709493     0.75370
O450        O  0.83631207  0.64848045  0.36658701    -0.58420
C451        C  0.86256979  0.72261798  0.26446598     0.75340
C452        C  0.93677167  0.65902162  0.33893557     0.77730
Cd453      Cd  0.86868722  0.70623231  0.35139172     1.37460
O454        O  0.86578591  0.75555258  0.41618248    -0.57260
O455        O  0.94145130  0.69634998  0.35051815    -0.56070
C456        C  0.80252791  0.65843167  0.35104923     0.77690
O457        O  0.90213363  0.64276677  0.34194744    -0.58440
O458        O  0.84138977  0.69453171  0.41828995    -0.56890
O459        O  0.86904344  0.68720625  0.27878939    -0.56880
O460        O  0.79891344  0.69275595  0.33253690    -0.56050
O461        O  0.66981909  0.27721772  0.57265146    -0.57260
C462        C  0.69241788  0.41922166  0.59695019     0.75370
O463        O  0.77283853  0.35920166  0.61588139    -0.58420
C464        C  0.69529477  0.25100404  0.58679316     0.75340
C465        C  0.77473026  0.31463052  0.52696300     0.77730
Cd466      Cd  0.71741341  0.33588307  0.58463866     1.37470
O467        O  0.67768321  0.38933288  0.61766496    -0.57260
O468        O  0.74071443  0.32966047  0.51564311    -0.56070
C469        C  0.76290072  0.34533997  0.65087595     0.77690
O470        O  0.78409897  0.31556240  0.56458113    -0.58440
O471        O  0.71095097  0.40951194  0.56394777    -0.56890
O472        O  0.72705510  0.26497594  0.60335499    -0.56880
O473        O  0.72778767  0.32998813  0.65669311    -0.56050
O474        O  0.83266554  0.39131398  0.77428537    -0.57260
C475        C  0.85237590  0.24822050  0.74348824     0.75370
O476        O  0.82905784  0.35368458  0.66968506    -0.58420
C477        C  0.84142721  0.41989842  0.74860055     0.75340
C478        C  0.92769309  0.31753105  0.68446245     0.77730
Cd479      Cd  0.85847058  0.33507477  0.72804618     1.37470
O480        O  0.85899936  0.27315590  0.77347695    -0.57260
O481        O  0.93082193  0.33179731  0.72103572    -0.56070
C482        C  0.79362125  0.34351421  0.68087626     0.77690
O483        O  0.89348523  0.31808003  0.66696508    -0.58440
O484        O  0.84549289  0.26392722  0.70865851    -0.56890
O485        O  0.86449042  0.40926686  0.71913931    -0.56880
O486        O  0.78747528  0.32902509  0.71669158    -0.56050
O487        O  0.20508404  0.34938511  0.58872205    -0.57260
C488        C  0.20455222  0.38563172  0.72855523     0.75370
O489        O  0.11395060  0.42702680  0.65193000    -0.58420
C490        C  0.20400495  0.37535182  0.55955173     0.75340
C491        C  0.12487367  0.33214833  0.64307155     0.77730
Cd492      Cd  0.17875020  0.39315642  0.64408174     1.37460
O493        O  0.23062149  0.39620514  0.70118062    -0.57260
O494        O  0.16053568  0.32392912  0.65537599    -0.56070
C495        C  0.13015607  0.46001342  0.66462404     0.77690
O496        O  0.11653677  0.36779884  0.62965781    -0.58440
O497        O  0.16985032  0.37530111  0.71590855    -0.56890
O498        O  0.19678350  0.41239588  0.57027158    -0.56880
O499        O  0.16843712  0.46445234  0.66052448    -0.56050
O500        O  0.02408912  0.20002575  0.70444056    -0.57260
C501        C  0.05406621  0.23222344  0.56302610     0.75370
O502        O  0.99648923  0.31247627  0.66816897    -0.58420
C503        C  0.03416787  0.22628750  0.73213560     0.75340
C504        C  0.09328674  0.30280191  0.64523674     0.77730
Cd505      Cd  0.03001467  0.25179899  0.64752323     1.37460
O506        O  0.05576341  0.20436107  0.59093078    -0.57260
O507        O  0.09874949  0.26717096  0.66039316    -0.56070
C508        C  0.96140956  0.29725446  0.66497623     0.77690
O509        O  0.05850980  0.31323988  0.63265760    -0.58440
O510        O  0.03403171  0.26365145  0.57326004    -0.56890
O511        O  0.04551338  0.26138079  0.71990652    -0.56880
O512        O  0.95731301  0.26201728  0.64785967    -0.56050
O513        O  0.83724460  0.05966380  0.71670933    -0.57260
C514        C  0.85322560  0.20304415  0.74834122     0.75370
O515        O  0.82864574  0.09825483  0.82260744    -0.58420
C516        C  0.84536275  0.03039149  0.74184088     0.75340
C517        C  0.92347711  0.13350954  0.81684514     0.77730
Cd518      Cd  0.85947904  0.11607477  0.76520779     1.37470
O519        O  0.86105899  0.17807578  0.71872584    -0.57260
O520        O  0.93065207  0.12387804  0.77934983    -0.56070
C521        C  0.79503371  0.11458057  0.81388812     0.77690
O522        O  0.88802813  0.12897799  0.83078193    -0.58440
O523        O  0.84674329  0.18739280  0.78320805    -0.56890
O524        O  0.86755483  0.04114117  0.77180744    -0.56880
O525        O  0.78837749  0.12757522  0.77762013    -0.56050
O526        O  0.68168562  0.06597481  0.88614763    -0.57260
C527        C  0.70216582  0.20934294  0.91668991     0.75370
O528        O  0.78676440  0.13779339  0.94280867    -0.58420
C529        C  0.70536163  0.03665086  0.89695688     0.75340
C530        C  0.76741267  0.11952337  0.84678216     0.77730
Cd531      Cd  0.72313149  0.12276107  0.91490125     1.37460
O532        O  0.67490966  0.18201393  0.92446031    -0.57260
O533        O  0.73192395  0.13417415  0.84250088    -0.56070
C534        C  0.77269618  0.13753445  0.97896975     0.77690
O535        O  0.77992040  0.10938406  0.88202014    -0.58440
O536        O  0.73672660  0.19630341  0.90635387    -0.56890
O537        O  0.73020133  0.04622805  0.92506580    -0.56880
O538        O  0.73714423  0.12307249  0.98577847    -0.56050
O539        O  0.74332556  0.25142284  0.07826319    -0.57260
C540        C  0.89024185  0.22604941  0.09416330     0.75370
O541        O  0.81541426  0.14829401  0.11112218    -0.58420
C542        C  0.71761154  0.22169798  0.08069767     0.75340
C543        C  0.79376012  0.15869496  0.01086944     0.77730
Cd544      Cd  0.80508229  0.20553525  0.07829704     1.37460
O545        O  0.86302069  0.25417731  0.09132562    -0.57260
O546        O  0.80487397  0.19616267  0.00595258    -0.56070
C547        C  0.80766382  0.16160049  0.14672577     0.77690
O548        O  0.79584558  0.14240505  0.04600191    -0.58440
O549        O  0.87877924  0.19083906  0.08231251    -0.56890
O550        O  0.73225894  0.18591623  0.08300852    -0.56880
O551        O  0.79736049  0.19900673  0.15198245    -0.56050
O552        O  0.75204794  0.06314529  0.27521336    -0.57260
C553        C  0.89766768  0.08399116  0.24875577     0.75370
O554        O  0.80138141  0.03677139  0.16298428    -0.58420
C555        C  0.72662244  0.06960894  0.24596204     0.75340
C556        C  0.81067941  0.13250069  0.17873451     0.77730
Cd557      Cd  0.81263787  0.06732139  0.22758823     1.37460
O558        O  0.86818011  0.09705934  0.27075528    -0.57260
O559        O  0.79647383  0.13826799  0.21465892    -0.56070
C560        C  0.79487092  0.00181714  0.17870751     0.77690
O561        O  0.82734620  0.09869926  0.16968819    -0.58440
O562        O  0.88795647  0.05756268  0.22168788    -0.56890
O563        O  0.74130641  0.07645099  0.21078056    -0.56880
O564        O  0.80496521  0.99528336  0.21614529    -0.56050
O565        O  0.81630973  0.73026262  0.07899537    -0.57260
C566        C  0.86022950  0.72899822  0.21964060     0.75370
O567        O  0.89753334  0.81775047  0.14228601    -0.58420
C568        C  0.84039051  0.73029841  0.04844005     0.75340
C569        C  0.80220266  0.80734064  0.13941942     0.77730
Cd570      Cd  0.86303262  0.75272129  0.13421825     1.37470
O571        O  0.87056404  0.70196946  0.19282827    -0.57260
O572        O  0.79254351  0.76946758  0.14206351    -0.56070
C573        C  0.93191453  0.80131332  0.14701684     0.77690
O574        O  0.83909122  0.81757195  0.13528380    -0.58440
O575        O  0.84828742  0.76307697  0.20615464    -0.56890
O576        O  0.87780813  0.73416462  0.05774288    -0.56880
O577        O  0.93589221  0.76340869  0.13742078    -0.56050
O578        O  0.67424126  0.90324795  0.19826790    -0.57260
C579        C  0.69873479  0.88665887  0.05464565     0.75370
O580        O  0.78751904  0.93715461  0.14843361    -0.58420
C581        C  0.70193161  0.89762062  0.22533575     0.75340
C582        C  0.77312234  0.83929291  0.13981270     0.77730
Cd583      Cd  0.72395376  0.90541084  0.13908397     1.37460
O584        O  0.67442139  0.88206182  0.08496997    -0.57260
O585        O  0.73692359  0.83393098  0.15197704    -0.56070
C586        C  0.77193167  0.97167243  0.15635007     0.77690
O587        O  0.78428210  0.87445882  0.12757466    -0.58440
O588        O  0.72857988  0.91036652  0.06179596    -0.56890
O589        O  0.73786103  0.89527657  0.21229067    -0.56880
O590        O  0.73440908  0.97763119  0.14826909    -0.56050
O591        O  0.22507865  0.77472116  0.05843008    -0.57260
C592        C  0.20582607  0.91747534  0.09259331     0.75370
O593        O  0.11597728  0.80579991  0.04977610    -0.58420
C594        C  0.20453646  0.74871193  0.07966933     0.75340
C595        C  0.12685359  0.84342954  0.13786545     0.77730
Cd596      Cd  0.17888299  0.83329711  0.07545962     1.37460
O597        O  0.22676580  0.88695131  0.10512585    -0.57260
O598        O  0.16144015  0.82820479  0.14587334    -0.56070
C599        C  0.12580216  0.80926739  0.01242157     0.77690
O600        O  0.11872129  0.85508336  0.10167578    -0.58440
O601        O  0.17973262  0.90894719  0.06509049    -0.56890
O602        O  0.17749566  0.76323236  0.10313846    -0.56880
O603        O  0.15844962  0.82882577  0.00369413    -0.56050
O604        O  0.03044129  0.77831390  0.26694056    -0.57260
C605        C  0.05226024  0.92488582  0.24244079     0.75370
O606        O  0.06078833  0.85707243  0.15675389    -0.58420
C607        C  0.03631975  0.75171168  0.23828583     0.75340
C608        C  0.96414214  0.82310347  0.16834517     0.77730
Cd609      Cd  0.03124060  0.83969801  0.21770242     1.37470
O610        O  0.07319900  0.89348250  0.25218162    -0.57260
O611        O  0.95893823  0.83593067  0.20519100    -0.56070
C612        C  0.09560324  0.84474470  0.16767066     0.77690
O613        O  0.99934237  0.82532995  0.15288843    -0.58440
O614        O  0.01671704  0.91669960  0.22918737    -0.56890
O615        O  0.04122961  0.76599007  0.20256083    -0.56880
O616        O  0.10105789  0.83124913  0.20387371    -0.56050
O617        O  0.02770956  0.24573251  0.80380365    -0.57260
C618        C  0.04529092  0.22181708  0.94483758     0.75370
O619        O  0.98708996  0.13428067  0.84828245    -0.58420
C620        C  0.03188468  0.21745845  0.77658217     0.75340
C621        C  0.08729382  0.14682831  0.86308081     0.77730
Cd622      Cd  0.02246603  0.19569803  0.86224763     1.37460
O623        O  0.04405859  0.24765881  0.91509250    -0.57260
O624        O  0.09051931  0.18204356  0.84654528    -0.56070
C625        C  0.95413508  0.15279174  0.84175075     0.77690
O626        O  0.05410404  0.13589060  0.87949147    -0.58440
O627        O  0.02674981  0.18827230  0.93803643    -0.56890
O628        O  0.03321538  0.18080311  0.78935344    -0.56880
O629        O  0.95036070  0.19009475  0.85377126    -0.56050
O630        O  0.20047366  0.10697333  0.91236783    -0.57260
C631        C  0.19890495  0.06680717  0.77069189     0.75370
O632        O  0.11428582  0.02523797  0.84379676    -0.58420
C633        C  0.19805065  0.08227346  0.94264328     0.75340
C634        C  0.11961858  0.11856799  0.86203470     0.77730
Cd635      Cd  0.17608288  0.06050578  0.85747434     1.37470
O636        O  0.22672600  0.06303262  0.79802680    -0.57260
O637        O  0.15445784  0.12880643  0.84855747    -0.56070
C638        C  0.13133179  0.99060058  0.84065149     0.77690
O639        O  0.11285711  0.08195795  0.87365234    -0.58440
O640        O  0.16309073  0.06984806  0.78388366    -0.56890
O641        O  0.19236033  0.04459661  0.93294314    -0.56880
O642        O  0.16793412  0.98684848  0.85309418    -0.56050
O643        O  0.15849401  0.89935084  0.72388035    -0.57260
C644        C  0.01238523  0.87786790  0.74902259     0.75370
O645        O  0.09849029  0.85731174  0.82825503    -0.58420
C646        C  0.18350556  0.88986747  0.75262691     0.75340
C647        C  0.11172704  0.95785777  0.81816403     0.77730
Cd648      Cd  0.09843763  0.88976659  0.76947066     1.37460
O649        O  0.04015634  0.86433204  0.72509058    -0.57260
O650        O  0.10287493  0.96259266  0.78018577    -0.56070
C651        C  0.09804561  0.82090821  0.81465580     0.77690
O652        O  0.10698167  0.92276240  0.83434551    -0.58440
O653        O  0.02481137  0.90155314  0.77743049    -0.56890
O654        O  0.16869606  0.87747620  0.78615090    -0.56880
O655        O  0.09973311  0.81460619  0.77607070    -0.56050
O656        O  0.14969158  0.69572188  0.91463145    -0.57260
C657        C  0.99993055  0.72555615  0.89268787     0.75370
O658        O  0.09671962  0.80491354  0.94660560    -0.58420
C659        C  0.17475691  0.72577287  0.90924148     0.75340
C660        C  0.09389464  0.78948674  0.84465990     0.77730
Cd661      Cd  0.08755389  0.74169899  0.91122746     1.37470
O662        O  0.02811343  0.70190766  0.87947745    -0.57260
O663        O  0.09843509  0.75127345  0.83746682    -0.56070
C664        C  0.10307471  0.78767687  0.98087554     0.77690
O665        O  0.08506098  0.80139842  0.88057221    -0.58440
O666        O  0.01202947  0.75097108  0.91963516    -0.56890
O667        O  0.15936816  0.76076198  0.90337275    -0.56880
O668        O  0.09351162  0.74962855  0.98502912    -0.56050
C669        C  0.33087052  0.22203853  0.97984680    -0.01930
C670        C  0.19633126  0.35755939  0.98371924    -0.01930
C671        C  0.06826670  0.23007028  0.98627945    -0.01930
C672        C  0.20120996  0.09895700  0.98754919    -0.01930
C673        C  0.09292122  0.15274278  0.98430831    -0.08600
C674        C  0.10139144  0.19488134  0.99310147     0.07590
C675        C  0.14239483  0.20294016  0.00537152    -0.02370
C676        C  0.17293227  0.17372544  0.99951181    -0.06820
C677        C  0.16538879  0.13182658  0.99017555     0.06710
C678        C  0.12361793  0.12203605  0.98238156    -0.01850
Br679      Br  0.10508021  0.06663334  0.97193131    -0.01540
H680        H  0.06197751  0.14268220  0.97973699     0.10620
H681        H  0.20282968  0.18558982  0.00397924     0.08640
Br682      Br  0.16029899  0.24793475  0.04007515    -0.01970
C683        C  0.14429295  0.31225828  0.94527007    -0.08600
C684        C  0.15221822  0.33664037  0.98044829     0.07590
C685        C  0.11988470  0.33604323  0.01048598    -0.02370
C686        C  0.08944667  0.30475312  0.00914852    -0.06820
C687        C  0.09128089  0.27215490  0.98024715     0.06710
C688        C  0.11895161  0.27787917  0.94695915    -0.01850
Br689      Br  0.13286726  0.23646357  0.90680636    -0.01540
H690        H  0.16529054  0.31261121  0.91962964     0.10620
H691        H  0.06712840  0.30377959  0.03360277     0.08640
Br692      Br  0.11190900  0.37489789  0.05429867    -0.01970
C693        C  0.30311533  0.29755239  0.00228995    -0.08600
C694        C  0.29711844  0.25818490  0.98329610     0.07590
C695        C  0.25774855  0.25387063  0.96511363    -0.02370
C696        C  0.22672542  0.28253761  0.97228604    -0.06820
C697        C  0.23209694  0.32286366  0.98831137     0.06710
C698        C  0.27343459  0.33006752  0.00128297    -0.01850
Br699      Br  0.29443896  0.38374331  0.01528730    -0.01540
H700        H  0.33162341  0.30520479  0.01640570     0.10620
H701        H  0.19786683  0.27092175  0.96328290     0.08640
Br702      Br  0.24103297  0.21173572  0.92634810    -0.01970
C703        C  0.27420198  0.11760341  0.96110443    -0.08600
C704        C  0.24451089  0.11975906  0.99275369     0.07590
C705        C  0.25629566  0.14353187  0.02768123    -0.02370
C706        C  0.28436105  0.17589163  0.02258458    -0.06820
C707        C  0.30715666  0.18063968  0.98591635     0.06710
C708        C  0.30578059  0.14665843  0.95784151    -0.01850
Br709      Br  0.34647642  0.13409353  0.91693244    -0.01540
H710        H  0.27280852  0.09375539  0.93782593     0.10620
H711        H  0.28795123  0.19820109  0.04723247     0.08640
Br712      Br  0.23112370  0.13991466  0.08076594    -0.01970
C713        C  0.73153301  0.67048443  0.50960336    -0.08600
C714        C  0.73790842  0.63081285  0.49227347     0.07590
C715        C  0.77980863  0.62151704  0.48416853    -0.02370
C716        C  0.80938146  0.65354681  0.48254110    -0.06820
C717        C  0.80008014  0.69514134  0.49225931     0.06710
C718        C  0.76282390  0.69971070  0.51339398    -0.01850
Br719      Br  0.76049429  0.73120958  0.56259636    -0.01540
H720        H  0.70335763  0.67715473  0.52547703     0.10620
H721        H  0.84005787  0.64525307  0.47439368     0.08640
Br722      Br  0.80199120  0.56664683  0.48427250    -0.01970
C723        C  0.62314284  0.68422559  0.45776828    -0.08600
C724        C  0.59276960  0.68353689  0.48832990     0.07590
C725        C  0.59551730  0.65089118  0.51794120    -0.02370
C726        C  0.62909280  0.62329922  0.51715381    -0.06820
C727        C  0.66030577  0.62616543  0.48705083     0.06710
C728        C  0.65529346  0.65719175  0.45660469    -0.01850
Br729      Br  0.69233864  0.66910636  0.41280284    -0.01540
H730        H  0.62359820  0.70895486  0.43525745     0.10620
H731        H  0.63100138  0.60034461  0.54122022     0.08640
Br732      Br  0.55673421  0.64051901  0.56099854    -0.01970
C733        C  0.73395168  0.80054816  0.45318583    -0.08600
C734        C  0.73285238  0.83219688  0.48297352     0.07590
C735        C  0.76886480  0.83566849  0.50779251    -0.02370
C736        C  0.80264315  0.80932023  0.50075821    -0.06820
C737        C  0.79970936  0.77295265  0.47671478     0.06710
C738        C  0.76597932  0.77274888  0.44927715    -0.01850
Br739      Br  0.76216431  0.74023284  0.40085044    -0.01540
H740        H  0.70862645  0.79709238  0.43205955     0.10620
H741        H  0.83085439  0.81740434  0.51561416     0.08640
Br742      Br  0.77508947  0.86855832  0.55660444    -0.01970
C743        C  0.61735156  0.83087325  0.46766683    -0.08600
C744        C  0.65579142  0.82660517  0.48727485     0.07590
C745        C  0.65878684  0.79230064  0.51381512    -0.02370
C746        C  0.63194758  0.75875989  0.51023076    -0.06820
C747        C  0.59342660  0.76197075  0.49040945     0.06710
C748        C  0.58533310  0.80188014  0.47370816    -0.01850
Br749      Br  0.53166560  0.82503574  0.47131825    -0.01540
H750        H  0.60948078  0.85952693  0.45302051     0.10620
H751        H  0.63915537  0.73162317  0.52817121     0.08640
Br752      Br  0.68804489  0.79679559  0.56455236    -0.01970
C753        C  0.62397724  0.44574670  0.85084422    -0.08600
C754        C  0.65336207  0.47755152  0.85405932     0.07590
C755        C  0.64025852  0.51522846  0.83481711    -0.02370
C756        C  0.61103424  0.51436661  0.80228964    -0.06820
C757        C  0.59132255  0.47727731  0.79048879     0.06710
C758        C  0.59165462  0.44740450  0.82266176    -0.01850
Br759      Br  0.54205908  0.42401636  0.84356759    -0.01540
H760        H  0.62296417  0.42142819  0.87340830     0.10620
H761        H  0.60408919  0.54270108  0.78611815     0.08640
Br762      Br  0.65954193  0.56888675  0.85142700    -0.01970
C763        C  0.72397618  0.53103142  0.58551858    -0.08600
C764        C  0.69772623  0.49698341  0.58062953     0.07590
C765        C  0.67123482  0.49875542  0.54585378    -0.02370
C766        C  0.67339765  0.53172736  0.51752445    -0.06820
C767        C  0.70008125  0.56569011  0.52244241     0.06710
C768        C  0.72427698  0.56533059  0.55911440    -0.01850
Br769      Br  0.75503609  0.61052964  0.58199544    -0.01540
H770        H  0.74370804  0.53261721  0.61192096     0.10620
H771        H  0.65306835  0.53112477  0.49127722     0.08640
Br772      Br  0.63054848  0.45792940  0.53347793    -0.01970
C773        C  0.61989921  0.44991907  0.63972920    -0.08600
C774        C  0.65594670  0.47347968  0.64183375     0.07590
C775        C  0.65789166  0.50251621  0.67456373    -0.02370
C776        C  0.63267349  0.49844401  0.70900854    -0.06820
C777        C  0.59838343  0.47217646  0.70914649     0.06710
C778        C  0.59029059  0.45134280  0.67092145    -0.01850
Br779      Br  0.53843557  0.42789667  0.65575853    -0.01540
H780        H  0.61400463  0.43030613  0.61350367     0.10620
H781        H  0.63854377  0.51962269  0.73347670     0.08640
Br782      Br  0.69258010  0.54993744  0.67495581    -0.01970
C783        C  0.73234208  0.49817926  0.81530373    -0.08600
C784        C  0.73303808  0.47229642  0.84987613     0.07590
C785        C  0.77117557  0.45163909  0.85658498    -0.02370
C786        C  0.80227580  0.45257363  0.82613722    -0.06820
C787        C  0.79793081  0.47465569  0.78873575     0.06710
C788        C  0.76457003  0.50221300  0.78798450    -0.01850
Br789      Br  0.75933395  0.54953243  0.75425527    -0.01540
H790        H  0.70768096  0.51815362  0.80939060     0.10620
H791        H  0.83011162  0.43603912  0.83221477     0.08640
Br792      Br  0.78603325  0.42542455  0.90759790    -0.01970
C793        C  0.80296497  0.46594255  0.66983132    -0.08600
C794        C  0.79171592  0.45967592  0.71154895     0.07590
C795        C  0.75297232  0.44012000  0.71660218    -0.02370
C796        C  0.72402394  0.44134005  0.68521479    -0.06820
C797        C  0.73169065  0.45925942  0.64626353     0.06710
C798        C  0.77391166  0.46482883  0.63731231    -0.01850
Br799      Br  0.79502767  0.46557638  0.58205992    -0.01540
H800        H  0.83462576  0.47139317  0.66234305     0.10620
H801        H  0.69477222  0.42721020  0.69147218     0.08640
Br802      Br  0.73722597  0.40568241  0.76241353    -0.01970
C803        C  0.50009193  0.75067439  0.58551136    -0.08600
C804        C  0.46344373  0.72801387  0.58225944     0.07590
C805        C  0.46000035  0.70378069  0.54545971    -0.02370
C806        C  0.49197548  0.70292943  0.51576771    -0.06820
C807        C  0.52998807  0.72311990  0.52190747     0.06710
C808        C  0.53369600  0.74450763  0.56001940    -0.01850
Br809      Br  0.58326067  0.75773905  0.58822777    -0.01540
H810        H  0.50517526  0.77229652  0.60998653     0.10620
H811        H  0.48734872  0.68492075  0.48804352     0.08640
Br812      Br  0.41250440  0.67188222  0.53159649    -0.01970
C813        C  0.47429767  0.80058511  0.70781589    -0.08600
C814        C  0.44718663  0.83434351  0.71036659     0.07590
C815        C  0.42371469  0.83978674  0.67320937    -0.02370
C816        C  0.41983516  0.80805740  0.64357011    -0.06820
C817        C  0.44036920  0.77009575  0.64681460     0.06710
C818        C  0.47070019  0.76889873  0.67826136    -0.01850
Br819      Br  0.51070545  0.72599923  0.68208220    -0.01540
H820        H  0.49982609  0.79801055  0.72777395     0.10620
H821        H  0.40068321  0.81417214  0.61745523     0.08640
Br822      Br  0.40075530  0.89087782  0.65447770    -0.01970
C823        C  0.49659270  0.56200019  0.71321898    -0.08600
C824        C  0.46478550  0.56015050  0.74215932     0.07590
C825        C  0.46956058  0.52922582  0.77333311    -0.02370
C826        C  0.50222995  0.50144132  0.77230533    -0.06820
C827        C  0.53293293  0.50216643  0.74217437     0.06710
C828        C  0.52899453  0.53404096  0.71163326    -0.01850
Br829      Br  0.56410634  0.54699885  0.66570011    -0.01540
H830        H  0.49842007  0.58743772  0.69216374     0.10620
H831        H  0.50394632  0.47918591  0.79667417     0.08640
Br832      Br  0.43764290  0.52323692  0.82267239    -0.01970
C833        C  0.40929867  0.66415145  0.71443409    -0.08600
C834        C  0.42940911  0.62662444  0.70620898     0.07590
C835        C  0.43770599  0.61963454  0.66364067    -0.02370
C836        C  0.44124003  0.65347726  0.63625075    -0.06820
C837        C  0.42726063  0.69324702  0.64730718     0.06710
C838        C  0.40665137  0.69594337  0.68600093    -0.01850
Br839      Br  0.37284465  0.74079603  0.70440150    -0.01540
H840        H  0.39392306  0.66863447  0.74362740     0.10620
H841        H  0.45240423  0.64758005  0.60558245     0.08640
Br842      Br  0.43642063  0.56556248  0.63905280    -0.01970
C843        C  0.41299155  0.79600068  0.85134866    -0.08600
C844        C  0.44413351  0.76589409  0.85221003     0.07590
C845        C  0.48030111  0.77815172  0.83128751    -0.02370
C846        C  0.47868732  0.80842982  0.80041841    -0.06820
C847        C  0.44312158  0.83118844  0.79163170     0.06710
C848        C  0.41277530  0.82870445  0.82324621    -0.01850
Br849      Br  0.37613164  0.87253892  0.83900725    -0.01540
H850        H  0.38890190  0.79586696  0.87401458     0.10620
H851        H  0.50720098  0.81764606  0.78669176     0.08640
Br852      Br  0.53402023  0.75768663  0.84280038    -0.01970
C853        C  0.46512689  0.68561121  0.80951478    -0.08600
C854        C  0.44051869  0.68539238  0.84533802     0.07590
C855        C  0.41859403  0.64759447  0.85146663    -0.02370
C856        C  0.41331711  0.61922874  0.81864486    -0.06820
C857        C  0.43833131  0.62033771  0.78314658     0.06710
C858        C  0.46886563  0.65127144  0.78369130    -0.01850
Br859      Br  0.51756024  0.64905349  0.75139377    -0.01540
H860        H  0.48473895  0.71037869  0.80181782     0.10620
H861        H  0.39163720  0.59466558  0.82280737     0.08640
Br862      Br  0.40170320  0.62862516  0.90500550    -0.01970
C863        C  0.53616292  0.70538241  0.94359781    -0.08600
C864        C  0.53071020  0.73174207  0.97770577     0.07590
C865        C  0.49441428  0.75565784  0.97727944    -0.02370
C866        C  0.46597701  0.75194122  0.94467262    -0.06820
C867        C  0.46959926  0.72216816  0.91282494     0.06710
C868        C  0.50527111  0.69690236  0.91479128    -0.01850
Br869      Br  0.51787920  0.64956320  0.88129949    -0.01540
H870        H  0.56454450  0.68921969  0.93970250     0.10620
H871        H  0.44053130  0.77304500  0.94420519     0.08640
Br872      Br  0.48351262  0.79774207  0.01748308    -0.01970
C873        C  0.72670769  0.55938783  0.95608005    -0.08600
C874        C  0.69314427  0.56304368  0.98344895     0.07590
C875        C  0.66293316  0.53143445  0.97868914    -0.02370
C876        C  0.66459081  0.50352627  0.94495591    -0.06820
C877        C  0.69696858  0.50281028  0.91595255     0.06710
C878        C  0.72876764  0.53205913  0.92296935    -0.01850
Br879      Br  0.77733795  0.54205669  0.89083996    -0.01540
H880        H  0.75357596  0.57804524  0.95972131     0.10620
H881        H  0.64021546  0.48116163  0.94180139     0.08640
Br882      Br  0.62091470  0.51906831  0.01845760    -0.01970
C883        C  0.61740968  0.62231191  0.00394390    -0.08600
C884        C  0.65707135  0.63013653  0.01926754     0.07590
C885        C  0.66270528  0.67155703  0.03311245    -0.02370
C886        C  0.63695049  0.70258416  0.01923323    -0.06820
C887        C  0.59518108  0.69559611  0.01151129     0.06710
C888        C  0.58568820  0.65225815  0.00638276    -0.01850
Br889      Br  0.53174497  0.62937983  0.00081878    -0.01540
H890        H  0.60979470  0.59308332  0.99078656     0.10620
H891        H  0.65115809  0.73215229  0.01677958     0.08640
Br892      Br  0.70431253  0.69077262  0.07048456    -0.01970
C893        C  0.62467710  0.83597626  0.98394624    -0.08600
C894        C  0.65441475  0.83601607  0.01526700     0.07590
C895        C  0.64746065  0.80787163  0.04808416    -0.02370
C896        C  0.61255880  0.78331449  0.04970937    -0.06820
C897        C  0.58766522  0.77634196  0.01477820     0.06710
C898        C  0.59338585  0.80569416  0.98199510    -0.01850
Br899      Br  0.56331632  0.80800576  0.93167984    -0.01540
H900        H  0.62793268  0.85697242  0.95824854     0.10620
H901        H  0.61140730  0.76186947  0.07520101     0.08640
Br902      Br  0.68719169  0.79341118  0.08869249    -0.01970
C903        C  0.76291443  0.68503197  0.97375068    -0.08600
C904        C  0.79413986  0.68900534  0.00340013     0.07590
C905        C  0.79931959  0.65359883  0.02935034    -0.02370
C906        C  0.76839171  0.62378124  0.03272326    -0.06820
C907        C  0.73239691  0.62634874  0.00919332     0.06710
C908        C  0.73272043  0.65493103  0.97606856    -0.01850
Br909      Br  0.69310020  0.65496637  0.93219200    -0.01540
H910        H  0.76369817  0.70188085  0.94563223     0.10620
H911        H  0.77305935  0.59815399  0.05350997     0.08640
Br912      Br  0.85015727  0.63811929  0.05439952    -0.01970
C913        C  0.76582563  0.83099688  0.03213237    -0.08600
C914        C  0.73088273  0.83041972  0.00674896     0.07590
C915        C  0.73400778  0.80282983  0.97223191    -0.02370
C916        C  0.76796032  0.77627685  0.96739195    -0.06820
C917        C  0.79693442  0.76995210  0.99887539     0.06710
C918        C  0.79878748  0.80386996  0.02691809    -0.01850
Br919      Br  0.84945886  0.82612689  0.04651476    -0.01540
H920        H  0.77007985  0.85457638  0.05469935     0.10620
H921        H  0.77242829  0.76241298  0.93760651     0.08640
Br922      Br  0.69634000  0.80215304  0.92703729    -0.01970
C923        C  0.89538141  0.69382862  0.91129594    -0.08600
C924        C  0.92327602  0.72687632  0.90856409     0.07590
C925        C  0.91895213  0.75811873  0.93938007    -0.02370
C926        C  0.88686072  0.75658367  0.96819446    -0.06820
C927        C  0.85788683  0.72445586  0.97021480     0.06710
C928        C  0.86418146  0.69151978  0.94099273    -0.01850
Br929      Br  0.83581445  0.63948611  0.93654206    -0.01540
H930        H  0.89734295  0.66841029  0.88993542     0.10620
H931        H  0.88458233  0.78187399  0.98920136     0.08640
Br932      Br  0.95029767  0.80845838  0.94180416    -0.01970
C933        C  0.99041975  0.78171788  0.82616117    -0.08600
C934        C  0.95442590  0.76981911  0.84708423     0.07590
C935        C  0.92081956  0.79837874  0.84161481    -0.02370
C936        C  0.92404649  0.83080316  0.81195340    -0.06820
C937        C  0.96167054  0.84000909  0.79225142     0.06710
C938        C  0.99497200  0.82219887  0.81222891    -0.01850
Br939      Br  0.01170896  0.85730455  0.85703945    -0.01540
H940        H  0.01724910  0.76276565  0.82696836     0.10620
H941        H  0.89702108  0.84804055  0.80500459     0.08640
Br942      Br  0.86848834  0.79685560  0.86881476    -0.01970
C943        C  0.92829564  0.71004776  0.54631049    -0.08600
C944        C  0.92409123  0.73436389  0.58242883     0.07590
C945        C  0.88805179  0.75909702  0.58350065    -0.02370
C946        C  0.85850629  0.75565393  0.55237471    -0.06820
C947        C  0.86425390  0.73510509  0.51443934     0.06710
C948        C  0.90103983  0.71141946  0.51259700    -0.01850
Br949      Br  0.91860955  0.67771279  0.46703790    -0.01540
H950        H  0.95278983  0.68827473  0.54392962     0.10620
H951        H  0.83020211  0.76999508  0.55931898     0.08640
Br952      Br  0.87201745  0.79880588  0.62469003    -0.01970
C953        C  0.96897663  0.80609406  0.64089171    -0.08600
C954        C  0.95436633  0.76604451  0.65043022     0.07590
C955        C  0.93716426  0.76140654  0.69016988    -0.02370
C956        C  0.94496864  0.79016847  0.72119342    -0.06820
C957        C  0.96299417  0.82908670  0.71317202     0.06710
C958        C  0.97190504  0.83752061  0.67096650    -0.01850
Br959      Br  0.98667441  0.89131725  0.65110724    -0.01540
H960        H  0.97744748  0.81329492  0.60943052     0.10620
H961        H  0.93220079  0.78289421  0.75081129     0.08640
Br962      Br  0.88977427  0.72817274  0.69979707    -0.01970
C963        C  0.88418783  0.56844813  0.74150393    -0.08600
C964        C  0.92528270  0.55773372  0.74749674     0.07590
C965        C  0.93151551  0.51486271  0.75697572    -0.02370
C966        C  0.89817726  0.48706854  0.75841191    -0.06820
C967        C  0.85877094  0.49687815  0.74346704     0.06710
C968        C  0.85455921  0.53884362  0.73070148    -0.01850
Br969      Br  0.82401215  0.55667029  0.68316099    -0.01540
H970        H  0.87598590  0.60053632  0.73865331     0.10620
H971        H  0.90412117  0.45672231  0.77076966     0.08640
Br972      Br  0.98197964  0.48892094  0.77215135    -0.01970
C973        C  0.92980316  0.66042994  0.77516820    -0.08600
C974        C  0.95306014  0.62451490  0.78060546     0.07590
C975        C  0.96732414  0.61831975  0.82173194    -0.02370
C976        C  0.96736314  0.65104939  0.85059567    -0.06820
C977        C  0.95087657  0.69037504  0.84163170     0.06710
C978        C  0.92607096  0.69098455  0.80578211    -0.01850
Br979      Br  0.87652102  0.72110230  0.80277757    -0.01540
H980        H  0.91094824  0.66292206  0.74830493     0.10620
H981        H  0.97930647  0.64505223  0.88107714     0.08640
Br982      Br  0.98387135  0.56599703  0.84333140    -0.01970
C983        C  0.92124451  0.62560004  0.67491151    -0.08600
C984        C  0.95591320  0.61839549  0.70051998     0.07590
C985        C  0.99098117  0.63605272  0.68307279    -0.02370
C986        C  0.98769852  0.67626917  0.66774028    -0.06820
C987        C  0.95407616  0.68706932  0.64254998     0.06710
C988        C  0.92094846  0.65761910  0.64433880    -0.01850
Br989      Br  0.87196262  0.65992950  0.61217215    -0.01540
H990        H  0.89479788  0.60647715  0.67641059     0.10620
H991        H  0.01413192  0.69605552  0.66965027     0.08640
Br992      Br  0.00847894  0.60056787  0.63862516    -0.01970
C993        C  0.67241116  0.96077567  0.94298152    -0.08600
C994        C  0.70185958  0.95801773  0.91094176     0.07590
C995        C  0.72973056  0.92395452  0.91517754    -0.02370
C996        C  0.72753702  0.89724627  0.94896734    -0.06820
C997        C  0.69543129  0.89672492  0.97765714     0.06710
C998        C  0.66783642  0.93035967  0.97433002    -0.01850
Br999      Br  0.62383053  0.93804614  0.01247488    -0.01540
H1000       H  0.65228079  0.98711780  0.94381028     0.10620
H1001       H  0.75244427  0.87607485  0.95196796     0.08640
Br1002     Br  0.77314093  0.90551848  0.87927698    -0.01970
C1003       C  0.90578103  0.96675316  0.73557339    -0.08600
C1004       C  0.86461343  0.95281306  0.73522641     0.07590
C1005       C  0.86062137  0.90885486  0.73287506    -0.02370
C1006       C  0.89430992  0.88271609  0.73661184    -0.06820
C1007       C  0.93447939  0.89657965  0.74206335     0.06710
C1008       C  0.93983449  0.94028994  0.73845064    -0.01850
Br1009     Br  0.99078177  0.96927240  0.73287624    -0.01540
H1010       H  0.91281065  0.99905588  0.73204516     0.10620
H1011       H  0.88872941  0.84983222  0.73470265     0.08640
Br1012     Br  0.81419444  0.87792696  0.71634110    -0.01970
C1013       C  0.73430620  0.95972988  0.81162872    -0.08600
C1014       C  0.74166152  0.98476511  0.84644146     0.07590
C1015       C  0.78311572  0.99790179  0.85050932    -0.02370
C1016       C  0.81140688  0.99218770  0.81763668    -0.06820
C1017       C  0.80033884  0.97624286  0.77825495     0.06710
C1018       C  0.76085966  0.95696308  0.77799846    -0.01850
Br1019     Br  0.73546520  0.92677701  0.73457075    -0.01540
H1020       H  0.70573768  0.94307081  0.80971112     0.10620
H1021       H  0.84264309  0.00027163  0.82371949     0.08640
Br1022     Br  0.80716264  0.01479349  0.90163662    -0.01970
C1023       C  0.53580384  0.92913855  0.78105148    -0.08600
C1024       C  0.53511287  0.96140181  0.75187171     0.07590
C1025       C  0.50216994  0.95954709  0.72324903    -0.02370
C1026       C  0.47385213  0.92701602  0.72459703    -0.06820
C1027       C  0.47293840  0.89685225  0.75570948     0.06710
C1028       C  0.50264929  0.90253435  0.78735663    -0.01850
Br1029     Br  0.49640457  0.88825981  0.84484281    -0.01540
H1030       H  0.56087002  0.92549653  0.80186752     0.10620
H1031       H  0.45073161  0.92727733  0.70183011     0.08640
Br1032     Br  0.49082746  0.99902544  0.68055667    -0.01970
C1033       C  0.62572542  0.98151375  0.85733803    -0.08600
C1034       C  0.66525337  0.99614913  0.84742926     0.07590
C1035       C  0.66761106  0.01948150  0.81011992    -0.02370
C1036       C  0.63740543  0.01687369  0.78060690    -0.06820
C1037       C  0.60016755  0.99701584  0.78771232     0.06710
C1038       C  0.59266401  0.98723856  0.82986078    -0.01850
Br1039     Br  0.53947826  0.99139676  0.85414243    -0.01540
H1040       H  0.61891319  0.96888945  0.88716994     0.10620
H1041       H  0.64272006  0.03224822  0.75168227     0.08640
Br1042     Br  0.71043440  0.05671061  0.79543469    -0.01970
C1043       C  0.66344087  0.92759017  0.57913429    -0.08600
C1044       C  0.69332261  0.95884348  0.57872022     0.07590
C1045       C  0.71989469  0.95888613  0.54394711    -0.02370
C1046       C  0.71751444  0.92733689  0.51387042    -0.06820
C1047       C  0.68957568  0.89400172  0.51657033     0.06710
C1048       C  0.65977936  0.89738726  0.54873549    -0.01850
Br1049     Br  0.60887947  0.86814322  0.55537441    -0.01540
H1050       H  0.64055046  0.92656631  0.60282017     0.10620
H1051       H  0.73925541  0.92788689  0.48875171     0.08640
Br1052     Br  0.76128899  0.00006868  0.53511202    -0.01970
C1053       C  0.76634193  0.96641727  0.63491562    -0.08600
C1054       C  0.73193535  0.99188094  0.64201760     0.07590
C1055       C  0.73417691  0.01845197  0.67679014    -0.02370
C1056       C  0.76591376  0.01546269  0.70462005    -0.06820
C1057       C  0.79864266  0.98782525  0.69990151     0.06710
C1058       C  0.80060297  0.96667418  0.66152766    -0.01850
Br1059     Br  0.85007930  0.94470955  0.63906329    -0.01540
H1060       H  0.76789767  0.94726747  0.60783011     0.10620
H1061       H  0.76461133  0.03488371  0.73166775     0.08640
Br1062     Br  0.69495985  0.06003063  0.69055305    -0.01970
C1063       C  0.65587475  0.95751383  0.67544774    -0.08600
C1064       C  0.65479594  0.98682740  0.64313737     0.07590
C1065       C  0.61692922  0.00738249  0.63925952    -0.02370
C1066       C  0.59080170  0.01094375  0.67354032    -0.06820
C1067       C  0.59538275  0.98680817  0.70959989     0.06710
C1068       C  0.62634142  0.95622450  0.70728805    -0.01850
Br1069     Br  0.63089620  0.91244674  0.74687861    -0.01540
H1070       H  0.67960524  0.93471319  0.67496139     0.10620
H1071       H  0.56525338  0.03119682  0.67044024     0.08640
Br1072     Br  0.58987475  0.01305344  0.58711165    -0.01970
C1073       C  0.00551136  0.21547984  0.08993612    -0.08600
C1074       C  0.96718591  0.23225615  0.08007921     0.07590
C1075       C  0.96407402  0.25073398  0.04026429    -0.02370
C1076       C  0.99732462  0.25063912  0.01275832    -0.06820
C1077       C  0.03493588  0.23137509  0.02156368     0.06710
C1078       C  0.03848626  0.21485895  0.06226990    -0.01850
Br1079     Br  0.08693740  0.19514243  0.08774435    -0.01540
H1080       H  0.01092717  0.20403521  0.12074625     0.10620
H1081       H  0.99331978  0.26600055  0.98343316     0.08640
Br1082     Br  0.91672644  0.27834345  0.01957621    -0.01970
C1083       C  0.94341882  0.20527963  0.18956366    -0.08600
C1084       C  0.93964142  0.19646482  0.14696196     0.07590
C1085       C  0.94139330  0.15289497  0.13771845    -0.02370
C1086       C  0.94295630  0.12277435  0.17011401    -0.06820
C1087       C  0.94114770  0.13423247  0.21246561     0.06710
C1088       C  0.93155411  0.17593506  0.21848977    -0.01850
Br1089     Br  0.87601096  0.18473782  0.22941634    -0.01540
H1090       H  0.94654744  0.23615562  0.20133791     0.10620
H1091       H  0.94546496  0.09045601  0.16206529     0.08640
Br1092     Br  0.94630781  0.13151746  0.08264014    -0.01970
C1093       C  0.89706565  0.28181930  0.16378030    -0.08600
C1094       C  0.93142644  0.27553996  0.13828423     0.07590
C1095       C  0.96436285  0.30363127  0.14512573    -0.02370
C1096       C  0.96469061  0.32954896  0.18023037    -0.06820
C1097       C  0.93163045  0.33216303  0.20826210     0.06710
C1098       C  0.89563462  0.31056255  0.19566862    -0.01850
Br1099     Br  0.84355212  0.30981523  0.22297538    -0.01540
H1100       H  0.87169530  0.26055509  0.16240756     0.10620
H1101       H  0.99201292  0.34733870  0.18543676     0.08640
Br1102     Br  0.00946683  0.31254493  0.10856098    -0.01970
C1103       C  0.92321177  0.28389808  0.28565484    -0.08600
C1104       C  0.94226540  0.32293047  0.28842048     0.07590
C1105       C  0.95744642  0.33213654  0.32927283    -0.02370
C1106       C  0.96075405  0.30061450  0.36016577    -0.06820
C1107       C  0.94134951  0.26180845  0.35552332     0.06710
C1108       C  0.91756932  0.25793878  0.31947092    -0.01850
Br1109     Br  0.87087228  0.22265886  0.31704465    -0.01540
H1110       H  0.90875745  0.27349181  0.25826949     0.10620
H1111       H  0.97526561  0.30796445  0.38918421     0.08640
Br1112     Br  0.97039609  0.38705034  0.34764983    -0.01970
C1113       C  0.97890975  0.18700750  0.32807502    -0.08600
C1114       C  0.95064931  0.18457766  0.36118561     0.07590
C1115       C  0.92905303  0.14671834  0.36360229    -0.02370
C1116       C  0.92654610  0.12037297  0.32888768    -0.06820
C1117       C  0.94921753  0.12727518  0.29210965     0.06710
C1118       C  0.97988329  0.15819752  0.29558494    -0.01850
Br1119     Br  0.02353568  0.16522501  0.25667055    -0.01540
H1120       H  0.99888139  0.21333860  0.32522708     0.10620
H1121       H  0.90713771  0.09376818  0.33195287     0.08640
Br1122     Br  0.91024461  0.12409326  0.41489115    -0.01970
C1123       C  0.00697422  0.07047017  0.21805083    -0.08600
C1124       C  0.97433471  0.06729605  0.24637380     0.07590
C1125       C  0.97467470  0.03108465  0.27135965    -0.02370
C1126       C  0.00591851  0.00144896  0.26794071    -0.06820
C1127       C  0.03806621  0.00391566  0.23896011     0.06710
C1128       C  0.03755520  0.04016353  0.21331274    -0.01850
Br1129     Br  0.07642046  0.05562172  0.17139069    -0.01540
H1130       H  0.01008143  0.09780564  0.19940353     0.10620
H1131       H  0.00483739  0.97538378  0.28879109     0.08640
Br1132     Br  0.93323188  0.01729122  0.31071979    -0.01970
C1133       C  0.22687163  0.03055667  0.01666892    -0.08600
C1134       C  0.19826926  0.06284252  0.02011852     0.07590
C1135       C  0.17163012  0.06032917  0.05505215    -0.02370
C1136       C  0.17367202  0.02697984  0.08258826    -0.06820
C1137       C  0.20225018  0.99487254  0.07936078     0.06710
C1138       C  0.22930996  0.99766132  0.04505593    -0.01850
Br1139     Br  0.27092866  0.95799821  0.03324291    -0.01540
H1140       H  0.24854951  0.03125044  0.99150775     0.10620
H1141       H  0.15359688  0.02845435  0.10865967     0.08640
Br1142     Br  0.13417629  0.10144390  0.07428492    -0.01970
C1143       C  0.14234652  0.94844461  0.21433022    -0.08600
C1144       C  0.10363934  0.96485536  0.20529322     0.07590
C1145       C  0.09427383  0.96367028  0.16220229    -0.02370
C1146       C  0.12614231  0.96198948  0.13221660    -0.06820
C1147       C  0.16749048  0.95668509  0.14387436     0.06710
C1148       C  0.17193812  0.94088751  0.18417392    -0.01850
Br1149     Br  0.21158781  0.89949778  0.19648178    -0.01540
H1150       H  0.14826827  0.93746293  0.24473337     0.10620
H1151       H  0.11845469  0.96458557  0.09989123     0.08640
Br1152     Br  0.03931381  0.96158271  0.14212627    -0.01970
C1153       C  0.15636974  0.00366951  0.31867419    -0.08600
C1154       C  0.15409112  0.97424805  0.35059507     0.07590
C1155       C  0.11605940  0.95305371  0.35358379    -0.02370
C1156       C  0.08885522  0.95243796  0.31971739    -0.06820
C1157       C  0.09534843  0.97688043  0.28405476     0.06710
C1158       C  0.12657442  0.00707557  0.28806447    -0.01850
Br1159     Br  0.13166228  0.05485216  0.25456768    -0.01540
H1160       H  0.18257151  0.02364113  0.31602418     0.10620
H1161       H  0.06183929  0.93341436  0.32204698     0.08640
Br1162     Br  0.09472252  0.93151501  0.40430089    -0.01970
C1163       C  0.26420535  0.94391380  0.28167397    -0.08600
C1164       C  0.29812264  0.97041012  0.28567575     0.07590
C1165       C  0.30137384  0.98955300  0.32521880    -0.02370
C1166       C  0.26814755  0.98927144  0.35370362    -0.06820
C1167       C  0.23162162  0.96688262  0.34633166     0.06710
C1168       C  0.23241964  0.94135542  0.31055367    -0.01850
Br1169     Br  0.19279962  0.89898550  0.29978477    -0.01540
H1170       H  0.26319443  0.92355596  0.25555867     0.10620
H1171       H  0.27244415  0.00444674  0.38306311     0.08640
Br1172     Br  0.35212688  0.00764660  0.34725580    -0.01970
C1173       C  0.26919457  0.00097524  0.20606688    -0.08600
C1174       C  0.30459954  0.97662210  0.20627686     0.07590
C1175       C  0.31298869  0.95612266  0.16820939    -0.02370
C1176       C  0.28196844  0.95076710  0.13820533    -0.06820
C1177       C  0.24418718  0.97154623  0.14092494     0.06710
C1178       C  0.24198546  0.00170848  0.17285693    -0.01850
Br1179     Br  0.20198193  0.04431637  0.17582977    -0.01540
H1180       H  0.26091778  0.01867628  0.23278748     0.10620
H1181       H  0.28825389  0.93066363  0.11252119     0.08640
Br1182     Br  0.36662990  0.93835612  0.15274845    -0.01970
C1183       C  0.19121310  0.02327850  0.48537359    -0.08600
C1184       C  0.19987067  0.06482322  0.47528349     0.07590
C1185       C  0.20490435  0.07328423  0.43249993    -0.02370
C1186       C  0.20336773  0.04123164  0.40290685    -0.06820
C1187       C  0.19577226  0.99930226  0.41299876     0.06710
C1188       C  0.18828874  0.99146950  0.45596236    -0.01850
Br1189     Br  0.16983495  0.94041064  0.48049142    -0.01540
H1190       H  0.18438323  0.01500726  0.51689529     0.10620
H1191       H  0.20852180  0.04981341  0.37126564     0.08640
Br1192     Br  0.20974971  0.12807920  0.41043760    -0.01970
C1193       C  0.01571666  0.23412277  0.41255556    -0.08600
C1194       C  0.97460282  0.22802208  0.42334317     0.07590
C1195       C  0.96738847  0.22067660  0.46650070    -0.02370
C1196       C  0.99936389  0.22222297  0.49530264    -0.06820
C1197       C  0.04063345  0.22849073  0.48453662     0.06710
C1198       C  0.04797489  0.23215357  0.44120200    -0.01850
Br1199     Br  0.10001740  0.22869392  0.41528380    -0.01540
H1200       H  0.02358477  0.23925217  0.38074427     0.10620
H1201       H  0.99111530  0.21583689  0.52687124     0.08640
Br1202     Br  0.91682966  0.20432828  0.49236601    -0.01970
C1203       C  0.09536308  0.15514466  0.49282157    -0.08600
C1204       C  0.10000145  0.18792690  0.52129619     0.07590
C1205       C  0.13143364  0.18339717  0.55110472    -0.02370
C1206       C  0.15866558  0.15102398  0.54875654    -0.06820
C1207       C  0.15949272  0.12285660  0.51546156     0.06710
C1208       C  0.12420835  0.12280951  0.48966201    -0.01850
Br1209     Br  0.10949038  0.07966488  0.45188415    -0.01540
H1210       H  0.06982789  0.15487921  0.47187656     0.10620
H1211       H  0.18374466  0.15173048  0.57040617     0.08640
Br1212     Br  0.14504345  0.22308418  0.59317882    -0.01970
C1213       C  0.14458971  0.25858304  0.49545960    -0.08600
C1214       C  0.10588173  0.26629990  0.51300042     0.07590
C1215       C  0.09905412  0.30874928  0.52254677    -0.02370
C1216       C  0.13232263  0.33692777  0.52501553    -0.06820
C1217       C  0.17210505  0.32726069  0.51023025     0.06710
C1218       C  0.17329412  0.28969282  0.48760208    -0.01850
Br1219     Br  0.18989329  0.28625236  0.43096767    -0.01540
H1220       H  0.15034226  0.22919415  0.48127386     0.10620
H1221       H  0.12627535  0.36799730  0.53563866     0.08640
Br1222     Br  0.04610351  0.33349688  0.52276674    -0.01970
C1223       C  0.31440762  0.30593128  0.53292139    -0.08600
C1224       C  0.31343339  0.27781533  0.49933762     0.07590
C1225       C  0.29103130  0.29288050  0.46487033    -0.02370
C1226       C  0.26346995  0.32592387  0.46970004    -0.06820
C1227       C  0.25230191  0.34086867  0.50862578     0.06710
C1228       C  0.28373835  0.33574278  0.53901339    -0.01850
Br1229     Br  0.29200203  0.36831103  0.58817340    -0.01540
H1230       H  0.33751435  0.30342582  0.55642315     0.10620
H1231       H  0.24885900  0.33864879  0.44284142     0.08640
Br1232     Br  0.29607527  0.27330019  0.40970091    -0.01970
C1233       C  0.30991961  0.15458683  0.50055900    -0.08600
C1234       C  0.29949742  0.19730098  0.50097091     0.07590
C1235       C  0.25758620  0.20481869  0.50622995    -0.02370
C1236       C  0.22876284  0.17396767  0.49904443    -0.06820
C1237       C  0.23737877  0.13131447  0.50298007     0.06710
C1238       C  0.27998571  0.12221776  0.50131103    -0.01850
Br1239     Br  0.30000555  0.06705499  0.49458489    -0.01540
H1240       H  0.34175496  0.14627310  0.49908143     0.10620
H1241       H  0.19840287  0.18477545  0.49486983     0.08640
Br1242     Br  0.23797940  0.24457784  0.54493494    -0.01970
C1243       C  0.03993510  0.41532137  0.26268769    -0.08600
C1244       C  0.03320224  0.45373080  0.24286660     0.07590
C1245       C  0.99489782  0.45733929  0.22246559    -0.02370
C1246       C  0.96487133  0.42617499  0.22639588    -0.06820
C1247       C  0.97175531  0.38855149  0.24757556     0.06710
C1248       C  0.01237726  0.38211538  0.26063975    -0.01850
Br1249     Br  0.03531934  0.32839937  0.27057250    -0.01540
H1250       H  0.06754886  0.40931623  0.27899535     0.10620
H1251       H  0.93618461  0.43099072  0.21095399     0.08640
Br1252     Br  0.98164439  0.50134727  0.18508228    -0.01970
C1253       C  0.18750771  0.46223618  0.04507129    -0.08600
C1254       C  0.20188224  0.45255963  0.08488699     0.07590
C1255       C  0.21010495  0.40959260  0.09173859    -0.02370
C1256       C  0.20870419  0.38062810  0.05906597    -0.06820
C1257       C  0.19745636  0.39142015  0.01853795     0.06710
C1258       C  0.18408049  0.43305671  0.01313626    -0.01850
Br1259     Br  0.15479960  0.45326703  0.96596486    -0.01540
H1260       H  0.17650797  0.49278431  0.03848513     0.10620
H1261       H  0.21527584  0.34861577  0.06582713     0.08640
Br1262     Br  0.21916358  0.38464031  0.14448552    -0.01970
C1263       C  0.12701411  0.51905864  0.20415936    -0.08600
C1264       C  0.09644280  0.48849304  0.20365613     0.07590
C1265       C  0.09753627  0.46081476  0.16906075    -0.02370
C1266       C  0.13033980  0.46236557  0.14044464    -0.06820
C1267       C  0.16188410  0.49213443  0.14300158     0.06710
C1268       C  0.15654486  0.52304801  0.17371315    -0.01850
Br1269     Br  0.18897711  0.57161087  0.17966298    -0.01540
H1270       H  0.12827103  0.54078227  0.22956154     0.10620
H1271       H  0.13167014  0.43874543  0.11705213     0.08640
Br1272     Br  0.05958535  0.41683589  0.15895683    -0.01970
C1273       C  0.22876960  0.46766859  0.19169446    -0.08600
C1274       C  0.23900661  0.47926273  0.15127639     0.07590
C1275       C  0.28186970  0.48072941  0.14325537    -0.02370
C1276       C  0.31049429  0.48063627  0.17643017    -0.06820
C1277       C  0.29819302  0.47533224  0.21815222     0.06710
C1278       C  0.25740578  0.46191349  0.22253426    -0.01850
Br1279     Br  0.23908279  0.42511200  0.26356367    -0.01540
H1280       H  0.19819824  0.45828535  0.19890077     0.10620
H1281       H  0.34235390  0.48565321  0.16954086     0.08640
Br1282     Br  0.30364106  0.48104710  0.08829678    -0.01970
C1283       C  0.21927453  0.46360988  0.45077465    -0.08600
C1284       C  0.19080986  0.45838724  0.41836932     0.07590
C1285       C  0.16492673  0.42286486  0.42152321    -0.02370
C1286       C  0.17096145  0.39376609  0.45276397    -0.06820
C1287       C  0.20166258  0.39693699  0.48309697     0.06710
C1288       C  0.22570548  0.43350200  0.48155339    -0.01850
Br1289     Br  0.27051105  0.44420275  0.51764423    -0.01540
H1290       H  0.23933848  0.49020602  0.45030291     0.10620
H1291       H  0.15101440  0.36740317  0.45166199     0.08640
Br1292     Br  0.11986493  0.40709132  0.38674109    -0.01970
C1293       C  0.23315080  0.51888572  0.32325241    -0.08600
C1294       C  0.23177923  0.48977947  0.35541683     0.07590
C1295       C  0.26685759  0.46348406  0.35842334    -0.02370
C1296       C  0.30058456  0.46884642  0.33136523    -0.06820
C1297       C  0.29798006  0.49325898  0.29557173     0.06710
C1298       C  0.26466213  0.52135507  0.29479420    -0.01850
Br1299     Br  0.25688767  0.56436000  0.25546301    -0.01540
H1300       H  0.20776993  0.53974773  0.31911064     0.10620
H1301       H  0.32756388  0.45085912  0.33666398     0.08640
Br1302     Br  0.27039116  0.41360522  0.39005839    -0.01970
C1303       C  0.08709153  0.50288784  0.32062086    -0.08600
C1304       C  0.09597603  0.48340892  0.28241509     0.07590
C1305       C  0.13108020  0.45758986  0.28342918    -0.02370
C1306       C  0.15880670  0.45967275  0.31662184    -0.06820
C1307       C  0.15401705  0.48577111  0.35111362     0.06710
C1308       C  0.11420385  0.50302732  0.35464358    -0.01850
Br1309     Br  0.08812148  0.51436170  0.40646450    -0.01540
H1310       H  0.05749576  0.51580933  0.32596413     0.10620
H1311       H  0.18304364  0.43773044  0.31797166     0.08640
Br1312     Br  0.14031508  0.41337350  0.24465987    -0.01970
C1313       C  0.40311522  0.19659290  0.07368419    -0.08600
C1314       C  0.42554893  0.23312414  0.07967923     0.07590
C1315       C  0.42101722  0.26376898  0.04833395    -0.02370
C1316       C  0.39197950  0.25889015  0.01640491    -0.06820
C1317       C  0.36659719  0.22369802  0.01299882     0.06710
C1318       C  0.37772536  0.19021077  0.03973204    -0.01850
Br1319     Br  0.37120663  0.13185214  0.02898578    -0.01540
H1320       H  0.40733901  0.17042200  0.09366671     0.10620
H1321       H  0.38976459  0.28298778  0.99343921     0.08640
Br1322     Br  0.45246782  0.31379141  0.04621956    -0.01970
C1323       C  0.39229285  0.07701358  0.25506573    -0.08600
C1324       C  0.43309077  0.06561760  0.24691041     0.07590
C1325       C  0.43840181  0.02255687  0.23765812    -0.02370
C1326       C  0.40542378  0.99427761  0.23938747    -0.06820
C1327       C  0.36482688  0.00540760  0.24895460     0.06710
C1328       C  0.35911156  0.04874382  0.25564421    -0.01850
Br1329     Br  0.30800427  0.07387438  0.26886131    -0.01540
H1330       H  0.38573615  0.10870253  0.26251712     0.10620
H1331       H  0.41217042  0.96273732  0.23120555     0.08640
Br1332     Br  0.48771078  0.99691893  0.21842531    -0.01970
C1333       C  0.47291896  0.16052830  0.13978702    -0.08600
C1334       C  0.45104217  0.19765517  0.14830357     0.07590
C1335       C  0.42489064  0.19392439  0.18354548    -0.02370
C1336       C  0.43134561  0.16308972  0.21331819    -0.06820
C1337       C  0.45856790  0.13003612  0.20784805     0.06710
C1338       C  0.47528571  0.12690557  0.16758940    -0.01850
Br1339     Br  0.49613796  0.07646227  0.14513587    -0.01540
H1340       H  0.48761625  0.15678463  0.11015663     0.10620
H1341       H  0.41444753  0.16550730  0.24179127     0.08640
Br1342     Br  0.37587963  0.22303671  0.19492483    -0.01970
C1343       C  0.39827231  0.21594040  0.40096380    -0.08600
C1344       C  0.43697321  0.23182191  0.41157071     0.07590
C1345       C  0.44007397  0.24724279  0.45298939    -0.02370
C1346       C  0.40545840  0.24953233  0.47863906    -0.06820
C1347       C  0.36841962  0.22906729  0.46999816     0.06710
C1348       C  0.36658627  0.20989609  0.43003189    -0.01850
Br1349     Br  0.32325369  0.17541340  0.40915191    -0.01540
H1350       H  0.39303599  0.20579672  0.36962033     0.10620
H1351       H  0.40847810  0.26652141  0.50719916     0.08640
Br1352     Br  0.48891245  0.26482341  0.48098794    -0.01970
C1353       C  0.49736047  0.16423014  0.28236247    -0.08600
C1354       C  0.47065005  0.12996254  0.28542483     0.07590
C1355       C  0.45303332  0.12434166  0.32523138    -0.02370
C1356       C  0.45444732  0.15635556  0.35541236    -0.06820
C1357       C  0.47545761  0.19413137  0.34869245     0.06710
C1358       C  0.50152004  0.19423379  0.31328042    -0.01850
Br1359     Br  0.54153907  0.23656191  0.30163148    -0.01540
H1360       H  0.51540940  0.16811916  0.25467175     0.10620
H1361       H  0.44023523  0.15059662  0.38491399     0.08640
Br1362     Br  0.43530023  0.07172931  0.34469626    -0.01970
C1363       C  0.39697957  0.38843649  0.27034597    -0.08600
C1364       C  0.43429464  0.39999867  0.25227736     0.07590
C1365       C  0.43495360  0.44070736  0.23561188    -0.02370
C1366       C  0.40127957  0.46751823  0.24020124    -0.06820
C1367       C  0.36355914  0.45599063  0.25879257     0.06710
C1368       C  0.36251050  0.41374680  0.27235675    -0.01850
Br1369     Br  0.31787726  0.38147749  0.29234658    -0.01540
H1370       H  0.39293451  0.35699387  0.28067933     0.10620
H1371       H  0.40463057  0.49748414  0.22604018     0.08640
Br1372     Br  0.47806493  0.46369931  0.20315705    -0.01970
C1373       C  0.46741801  0.34356747  0.32230960    -0.08600
C1374       C  0.46211832  0.33134275  0.28066404     0.07590
C1375       C  0.45406174  0.28898300  0.27439955    -0.02370
C1376       C  0.44449539  0.26343083  0.30764755    -0.06820
C1377       C  0.46032765  0.27196332  0.34733799     0.06710
C1378       C  0.46857160  0.31453019  0.35495401    -0.01850
Br1379     Br  0.47993645  0.33688839  0.40811992    -0.01540
H1380       H  0.47321440  0.37579321  0.32912855     0.10620
H1381       H  0.43299630  0.23305133  0.30009276     0.08640
Br1382     Br  0.47762895  0.25893520  0.22996010    -0.01970
C1383       C  0.48611416  0.30793473  0.14193394    -0.08600
C1384       C  0.45226170  0.28049657  0.13964248     0.07590
C1385       C  0.41646584  0.29827294  0.15698673    -0.02370
C1386       C  0.41978171  0.32678376  0.19039077    -0.06820
C1387       C  0.45776800  0.34509846  0.20095345     0.06710
C1388       C  0.48752442  0.34134862  0.16952042    -0.01850
Br1389     Br  0.52220119  0.38595030  0.15339257    -0.01540
H1390       H  0.51092706  0.30559317  0.12039749     0.10620
H1391       H  0.39266977  0.33453021  0.20750362     0.08640
Br1392     Br  0.36480106  0.29605716  0.12897449    -0.01970
loop_ 
_geom_bond_atom_site_label_1 
_geom_bond_atom_site_label_2 
_geom_bond_distance 
_geom_bond_site_symmetry_2 
_ccdc_geom_bond_type 
C1           C59   1.555       .  S
C1         C1364   1.586       .  S
C1         C1374   1.579       .  S
C1         C1387   1.590       .  S
C2          C267   1.544       .  S
C2         C1344   1.590       .  S
C2         C1357   1.605       .  S
C2         C1377   1.587       .  S
C3          C256   1.544       .  S
C3         C1324   1.602       .  S
C3         C1337   1.586       .  S
C3         C1354   1.599       .  S
C4           C48   1.565       .  S
C4         C1314   1.573       .  S
C4         C1334   1.618       .  S
C4         C1384   1.608       .  S
C5          C373   1.567       .  S
C5         C1284   1.571       .  S
C5         C1294   1.593       .  S
C5         C1307   1.602       .  S
C6          C111   1.562       .  S
C6         C1277   1.598       .  S
C6         C1297   1.582       .  S
C6         C1367   1.605       .  S
C7           C98   1.561       .  S
C7         C1254   1.587       .  S
C7         C1267   1.583       .  S
C7         C1274   1.595       .  S
C8          C358   1.574       .  S
C8         C1244   1.583       .  S
C8         C1264   1.584       .  S
C8         C1304   1.605       .  S
C9          C215   1.562       .  S
C9         C1224   1.598       .  S
C9         C1234   1.589       .  S
C9         C1347   1.592       .  S
C10         C490   1.539       .  S
C10        C1217   1.611       .  S
C10        C1227   1.593       .  S
C10        C1287   1.579       .  S
C11         C501   1.566       .  S
C11        C1197   1.594       .  S
C11        C1204   1.570       .  S
C11        C1214   1.602       .  S
C12         C204   1.570       .  S
C12        C1184   1.576       .  S
C12        C1207   1.585       .  S
C12        C1237   1.617       .  S
C13         C308   1.564       .  S
C13        C1164   1.603       .  S
C13        C1174   1.590       .  S
C13        C1327   1.603   1_565  S
C14         C321   1.540       .  S
C14        C1154   1.582       .  S
C14        C1167   1.599       .  S
C14        C1187   1.589       .  S
C15         C592   1.549       .  S
C15        C1137   1.579       .  S
C15        C1147   1.595       .  S
C15        C1177   1.589       .  S
C16         C605   1.562       .  S
C16        C1127   1.592   1_565  S
C16        C1144   1.591       .  S
C16        C1157   1.589       .  S
C17         C412   1.545       .  S
C17        C1107   1.592       .  S
C17        C1114   1.591       .  S
C17        C1194   1.585       .  S
C18         C425   1.541       .  S
C18        C1097   1.589       .  S
C18        C1104   1.614       .  S
C18        C1247   1.578       .  S
C19         C553   1.551       .  S
C19        C1087   1.599       .  S
C19        C1117   1.593       .  S
C19        C1124   1.591       .  S
C20         C540   1.563       .  S
C20        C1074   1.572       .  S
C20        C1084   1.611       .  S
C20        C1094   1.587       .  S
C21         C243   1.549   1_565  S
C21        C1044   1.574       .  S
C21        C1054   1.571       .  S
C21        C1064   1.600       .  S
C22         C228   1.546   1_565  S
C22        C1024   1.576       .  S
C22        C1037   1.576       .  S
C22        C1067   1.593       .  S
C23         C516   1.577   1_565  S
C23        C1004   1.602       .  S
C23        C1017   1.615       .  S
C23        C1057   1.570       .  S
C24         C529   1.561   1_565  S
C24         C994   1.596       .  S
C24        C1014   1.598       .  S
C24        C1034   1.588       .  S
C25         C397   1.555   1_655  S
C25         C964   1.591       .  S
C25         C974   1.582       .  S
C25         C984   1.620       .  S
C26         C384   1.574   1_655  S
C26         C944   1.589       .  S
C26         C954   1.570       .  S
C26         C987   1.598       .  S
C27         C657   1.585       .  S
C27         C924   1.577       .  S
C27         C934   1.594       .  S
C27         C977   1.594       .  S
C28         C644   1.554   1_655  S
C28         C937   1.594       .  S
C28         C957   1.577       .  S
C28        C1007   1.582       .  S
C29         C568   1.556       .  S
C29         C904   1.576       .  S
C29         C917   1.618   1_554  S
C29         C927   1.588   1_554  S
C30         C579   1.563       .  S
C30         C894   1.574       .  S
C30         C914   1.608       .  S
C30         C997   1.589   1_554  S
C31          C85   1.542       .  S
C31         C874   1.600   1_554  S
C31         C884   1.600       .  S
C31         C907   1.564       .  S
C32          C74   1.558       .  S
C32         C864   1.578   1_554  S
C32         C887   1.621       .  S
C32         C897   1.602       .  S
C33         C139   1.564       .  S
C33         C844   1.585       .  S
C33         C854   1.594       .  S
C33         C867   1.582       .  S
C34         C126   1.553       .  S
C34         C824   1.580       .  S
C34         C834   1.585       .  S
C34         C857   1.584       .  S
C35         C347   1.538       .  S
C35         C814   1.617       .  S
C35         C847   1.585       .  S
C35        C1027   1.581       .  S
C36         C332   1.552       .  S
C36         C804   1.596       .  S
C36         C817   1.597       .  S
C36         C837   1.568       .  S
C37         C477   1.553       .  S
C37         C787   1.580       .  S
C37         C794   1.581       .  S
C37         C967   1.598       .  S
C38         C462   1.538       .  S
C38         C764   1.575       .  S
C38         C774   1.570       .  S
C38         C797   1.590       .  S
C39         C176   1.551       .  S
C39         C757   1.610       .  S
C39         C777   1.569       .  S
C39         C827   1.576       .  S
C40         C191   1.556       .  S
C40         C754   1.614       .  S
C40         C784   1.581       .  S
C40         C877   1.574       .  S
C41         C295   1.556       .  S
C41         C734   1.594       .  S
C41         C744   1.587       .  S
C41        C1047   1.574       .  S
C42         C282   1.575       .  S
C42         C724   1.577       .  S
C42         C747   1.607       .  S
C42         C807   1.581       .  S
C43         C438   1.560       .  S
C43         C714   1.593       .  S
C43         C727   1.575       .  S
C43         C767   1.577       .  S
C44         C449   1.553       .  S
C44         C717   1.599       .  S
C44         C737   1.602       .  S
C44         C947   1.598       .  S
O45          C48   1.269       .  A
O45         Cd50   2.469       .  S
C46          O55   1.254       .  A
C46          O51   1.283       .  A
C46         C542   1.485       .  S
O47          C53   1.262       .  A
O47         Cd50   2.402       .  S
C48          O56   1.273       .  A
C49          O54   1.264       .  A
C49          O52   1.269       .  A
C49          C62   1.415       .  S
Cd50         O57   2.406       .  S
Cd50         O56   2.592       .  S
Cd50         O55   2.427       .  S
Cd50         O51   2.566       .  S
Cd50         O54   2.228       .  S
Cd50         O52   2.412       .  S
C53          O57   1.275       .  A
C53         C196   1.446   1_554  S
O58          C61   1.279       .  A
O58         Cd63   2.541       .  S
C59          O68   1.271       .  A
C59          O64   1.266       .  A
O60          C66   1.257       .  A
O60         Cd63   2.397       .  S
C61          O69   1.253       .  A
C61         C423   1.476       .  S
C62          O67   1.263       .  A
C62          O65   1.272       .  A
Cd63         O70   2.425       .  S
Cd63         O69   2.411       .  S
Cd63         O68   2.604       .  S
Cd63         O64   2.452       .  S
Cd63         O67   2.226       .  S
Cd63         O65   2.419       .  S
C66          O70   1.271       .  A
C66          C92   1.439       .  S
O71          C74   1.278       .  A
O71         Cd76   2.505       .  S
C72          O81   1.260       .  A
C72          O77   1.280       .  A
C72         C280   1.478       .  S
O73          C79   1.260       .  A
O73         Cd76   2.370       .  S
C74          O82   1.261       .  A
C75          O80   1.261       .  A
C75          O78   1.270       .  A
C75          C88   1.411       .  S
Cd76         O83   2.360       .  S
Cd76         O82   2.462       .  S
Cd76         O81   2.455       .  S
Cd76         O77   2.508       .  S
Cd76         O80   2.249       .  S
Cd76         O78   2.375       .  S
C79          O83   1.275       .  A
C79         C114   1.431       .  S
O84          C87   1.281       .  A
O84         Cd89   2.491       .  S
C85          O94   1.271       .  A
C85          O90   1.265       .  A
O86          C92   1.263       .  A
O86         Cd89   2.366       .  S
C87          O95   1.258       .  A
C87         C436   1.468       .  S
C88          O93   1.267       .  A
C88          O91   1.267       .  A
Cd89         O96   2.390       .  S
Cd89         O95   2.414       .  S
Cd89         O94   2.522       .  S
Cd89         O90   2.399       .  S
Cd89         O93   2.270       .  S
Cd89         O91   2.357       .  S
C92          O96   1.275       .  A
O97         C100   1.279       .  A
O97        Cd102   2.527       .  S
C98         O107   1.259       .  A
C98         O103   1.282       .  A
O99         C105   1.259       .  A
O99        Cd102   2.358       .  S
C100        O108   1.257       .  A
C100        C594   1.478       .  S
C101        O106   1.262       .  A
C101        O104   1.267       .  A
C101        C118   1.409       .  S
Cd102       O109   2.407       .  S
Cd102       O108   2.450       .  S
Cd102       O107   2.423       .  S
Cd102       O103   2.586       .  S
Cd102       O106   2.223       .  S
Cd102       O104   2.397       .  S
C105        O109   1.276       .  A
C105        C140   1.437   1_554  S
O110        C113   1.282       .  A
O110       Cd115   2.537       .  S
C111        O120   1.258       .  A
C111        O116   1.282       .  A
O112        C118   1.261       .  A
O112       Cd115   2.208       .  S
C113        O121   1.258       .  A
C113        C306   1.482       .  S
C114        O119   1.257       .  A
C114        O117   1.274       .  A
Cd115       O122   2.396       .  S
Cd115       O121   2.451       .  S
Cd115       O120   2.426       .  S
Cd115       O116   2.608       .  S
Cd115       O119   2.358       .  S
Cd115       O117   2.381       .  S
C118        O122   1.271       .  A
O123        C126   1.278       .  A
O123       Cd128   2.454       .  S
C124        O133   1.257       .  A
C124        O129   1.281       .  A
C124        C399   1.464       .  S
O125        C131   1.260       .  A
O125       Cd128   2.356       .  S
C126        O134   1.262       .  A
C127        O132   1.259       .  A
C127        O130   1.270       .  A
C127        C144   1.407       .  S
Cd128       O135   2.362       .  S
Cd128       O134   2.462       .  S
Cd128       O133   2.405       .  S
Cd128       O129   2.479       .  S
Cd128       O132   2.164       .  S
Cd128       O130   2.420       .  S
C131        O135   1.277       .  A
C131        C153   1.426       .  S
O136        C139   1.268       .  A
O136       Cd141   2.448       .  S
C137        O146   1.255       .  A
C137        O142   1.284       .  A
C137        C659   1.485       .  S
O138        C144   1.262       .  A
O138       Cd141   2.173       .  S
C139        O147   1.275       .  A
C140        O145   1.261       .  A
C140        O143   1.275       .  A
Cd141       O148   2.410       .  S
Cd141       O147   2.594       .  S
Cd141       O146   2.441       .  S
Cd141       O142   2.550       .  S
Cd141       O145   2.385       .  S
Cd141       O143   2.380       .  S
C144        O148   1.270       .  A
O149        C152   1.278       .  A
O149       Cd154   2.487       .  S
C150        C670   1.544       .  S
C150        O159   1.262       .  A
C150        O155   1.279       .  A
O151        C157   1.263       .  A
O151       Cd154   2.225       .  S
C152        O160   1.260       .  A
C152        C488   1.473       .  S
C153        O158   1.260       .  A
C153        O156   1.274       .  A
Cd154       O161   2.351       .  S
Cd154       O160   2.456       .  S
Cd154       O159   2.461       .  S
Cd154       O155   2.449       .  S
Cd154       O158   2.336       .  S
Cd154       O156   2.368       .  S
C157        O161   1.269       .  A
C157        C166   1.403       .  S
O162        C165   1.281       .  A
O162       Cd167   2.529       .  S
C163        C669   1.547       .  S
C163        O172   1.275       .  A
C163        O168   1.264       .  A
O164        C170   1.260       .  A
O164       Cd167   2.371       .  S
C165        O173   1.257       .  A
C165        C217   1.481       .  S
C166        O171   1.265       .  A
C166        O169   1.268       .  A
Cd167       O174   2.393       .  S
Cd167       O173   2.452       .  S
Cd167       O172   2.567       .  S
Cd167       O168   2.428       .  S
Cd167       O171   2.240       .  S
Cd167       O169   2.348       .  S
C170        O174   1.276       .  A
C170        C183   1.436       .  S
O175        C178   1.280       .  A
O175       Cd180   2.517       .  S
C176        O185   1.273       .  A
C176        O181   1.268       .  A
O177        C183   1.260       .  A
O177       Cd180   2.381       .  S
C178        O186   1.252       .  A
C178        C230   1.467       .  S
C179        O184   1.262       .  A
C179        O182   1.270       .  A
C179        C192   1.409       .  S
Cd180       O187   2.397       .  S
Cd180       O186   2.393       .  S
Cd180       O185   2.568       .  S
Cd180       O181   2.453       .  S
Cd180       O184   2.231       .  S
Cd180       O182   2.395       .  S
C183        O187   1.274       .  A
O188        C191   1.267       .  A
O188       Cd193   2.471       .  S
C189        O198   1.254       .  A
C189        O194   1.281       .  A
C189        C527   1.477       .  S
O190        C196   1.262       .  A
O190       Cd193   2.390       .  S
C191        O199   1.274       .  A
C192        O197   1.265       .  A
C192        O195   1.267       .  A
Cd193       O200   2.414       .  S
Cd193       O199   2.562       .  S
Cd193       O198   2.430       .  S
Cd193       O194   2.536       .  S
Cd193       O197   2.239       .  S
Cd193       O195   2.381       .  S
C196        O200   1.276       .  A
O201        C204   1.283       .  A
O201       Cd206   2.508       .  S
C202        O211   1.260       .  A
C202        O207   1.281       .  A
C202        C631   1.483       .  S
O203        C209   1.257   1_545  A
O203       Cd206   2.358       .  S
C204        O212   1.261       .  A
C205        O210   1.260       .  A
C205        O208   1.271       .  A
C205        C218   1.402       .  S
Cd206       O213   2.407   1_545  S
Cd206       O212   2.485       .  S
Cd206       O211   2.464       .  S
Cd206       O207   2.522       .  S
Cd206       O210   2.174       .  S
Cd206       O208   2.387       .  S
C209        O213   1.277       .  A
C209        C352   1.435       .  S
O214        C217   1.283       .  A
O214       Cd219   2.535       .  S
C215        O224   1.273       .  A
C215        O220   1.269       .  A
O216        C222   1.261       .  A
O216       Cd219   2.383       .  S
C217        O225   1.257       .  A
C218        O223   1.265       .  A
C218        O221   1.268       .  A
Cd219       O226   2.392       .  S
Cd219       O225   2.434       .  S
Cd219       O224   2.552       .  S
Cd219       O220   2.434       .  S
Cd219       O223   2.194       .  S
Cd219       O221   2.373       .  S
C222        O226   1.276       .  A
C222        C235   1.439       .  S
O227        C230   1.280       .  A
O227       Cd232   2.496       .  S
C228        O237   1.263       .  A
C228        O233   1.274       .  A
O229        C235   1.261       .  A
O229       Cd232   2.371       .  S
C230        O238   1.254       .  A
C231        O236   1.265       .  A
C231        O234   1.268       .  A
C231        C244   1.408       .  S
Cd232       O239   2.402       .  S
Cd232       O238   2.428       .  S
Cd232       O237   2.404       .  S
Cd232       O233   2.570       .  S
Cd232       O236   2.254       .  S
Cd232       O234   2.362       .  S
C235        O239   1.276       .  A
O240        C243   1.277       .  A
O240       Cd245   2.483       .  S
C241        O250   1.257       .  A
C241        O246   1.281       .  A
C241        C464   1.465       .  S
O242        C248   1.261       .  A
O242       Cd245   2.319       .  S
C243        O251   1.260       .  A
C244        O249   1.260       .  A
C244        O247   1.266       .  A
Cd245       O252   2.363       .  S
Cd245       O251   2.449       .  S
Cd245       O250   2.414       .  S
Cd245       O246   2.487       .  S
Cd245       O249   2.247       .  S
Cd245       O247   2.367       .  S
C248        O252   1.277       .  A
C248        C270   1.425       .  S
O253        C256   1.276       .  A
O253       Cd258   2.529       .  S
C254        O263   1.259       .  A
C254        O259   1.282       .  A
C254        C555   1.477       .  S
O255        C261   1.261       .  A
O255       Cd258   2.214       .  S
C256        O264   1.266       .  A
C257        O262   1.260   1_565  A
C257        O260   1.276       .  A
C257        C296   1.434       .  S
Cd258       O265   2.400       .  S
Cd258       O264   2.446       .  S
Cd258       O263   2.438       .  S
Cd258       O259   2.511       .  S
Cd258       O262   2.352       .  S
Cd258       O260   2.394   1_545  S
C261        O265   1.268       .  A
C261        C274   1.410       .  S
O266        C269   1.282       .  A
O266       Cd271   2.512       .  S
C267        O276   1.265       .  A
C267        O272   1.279       .  A
O268        C274   1.259       .  A
O268       Cd271   2.217       .  S
C269        O277   1.259       .  A
C269        C410   1.476       .  S
C270        O275   1.256       .  A
C270        O273   1.275       .  A
Cd271       O278   2.397       .  S
Cd271       O277   2.420       .  S
Cd271       O276   2.428       .  S
Cd271       O272   2.571       .  S
Cd271       O275   2.351       .  S
Cd271       O273   2.383       .  S
C274        O278   1.270       .  A
O279        C282   1.278       .  A
O279       Cd284   2.513       .  S
C280        O289   1.258       .  A
C280        O285   1.281       .  A
O281        C287   1.259       .  A
O281       Cd284   2.383       .  S
C282        O290   1.262       .  A
C283        O288   1.261       .  A
C283        O286   1.268       .  A
C283        C300   1.417       .  S
Cd284       O291   2.424       .  S
Cd284       O290   2.489       .  S
Cd284       O289   2.436       .  S
Cd284       O285   2.525       .  S
Cd284       O288   2.236       .  S
Cd284       O286   2.418       .  S
C287        O291   1.276       .  A
C287        C313   1.445       .  S
O292        C295   1.279       .  A
O292       Cd297   2.473       .  S
C293        O302   1.260       .  A
C293        O298   1.280       .  A
C293        C581   1.475       .  S
O294        C300   1.262       .  A
O294       Cd297   2.233       .  S
C295        O303   1.266       .  A
C296        O301   1.261       .  A
C296        O299   1.275       .  A
Cd297       O304   2.414       .  S
Cd297       O303   2.473       .  S
Cd297       O302   2.434       .  S
Cd297       O298   2.506       .  S
Cd297       O301   2.360       .  S
Cd297       O299   2.385       .  S
C300        O304   1.269       .  A
O305        C308   1.277       .  A
O305       Cd310   2.514       .  S
C306        O315   1.260       .  A
C306        O311   1.283       .  A
O307        C313   1.261       .  A
O307       Cd310   2.375       .  S
C308        O316   1.268       .  A
C309        O314   1.264       .  A
C309        O312   1.269       .  A
C309        C326   1.402       .  S
Cd310       O317   2.418       .  S
Cd310       O316   2.507       .  S
Cd310       O315   2.449       .  S
Cd310       O311   2.515       .  S
Cd310       O314   2.208       .  S
Cd310       O312   2.357       .  S
C313        O317   1.276       .  A
O318        C321   1.276       .  A
O318       Cd323   2.505       .  S
C319        O328   1.259       .  A
C319        O324   1.281       .  A
C319        C371   1.470       .  S
O320        C326   1.259       .  A
O320       Cd323   2.211       .  S
C321        O329   1.265       .  A
C322        O327   1.257       .  A
C322        O325   1.277       .  A
C322        C339   1.428       .  S
Cd323       O330   2.366       .  S
Cd323       O329   2.435       .  S
Cd323       O328   2.426       .  S
Cd323       O324   2.495       .  S
Cd323       O327   2.334       .  S
Cd323       O325   2.391       .  S
C326        O330   1.269       .  A
O331        C334   1.282       .  A
O331       Cd336   2.502       .  S
C332        O341   1.267       .  A
C332        O337   1.278       .  A
O333        C339   1.260       .  A
O333       Cd336   2.339       .  S
C334        O342   1.259       .  A
C334        C386   1.474       .  S
C335        O340   1.262       .  A
C335        O338   1.268       .  A
C335        C348   1.404       .  S
Cd336       O343   2.368       .  S
Cd336       O342   2.432       .  S
Cd336       O341   2.503       .  S
Cd336       O337   2.471       .  S
Cd336       O340   2.205       .  S
Cd336       O338   2.371       .  S
C339        O343   1.277       .  A
O344        C347   1.266       .  A
O344       Cd349   2.426       .  S
C345        O354   1.252       .  A
C345        O350   1.282       .  A
C345        C646   1.466       .  S
O346        C352   1.261       .  A
O346       Cd349   2.359       .  S
C347        O355   1.274       .  A
C348        O353   1.261       .  A
C348        O351   1.270       .  A
Cd349       O356   2.385       .  S
Cd349       O355   2.568       .  S
Cd349       O354   2.393       .  S
Cd349       O350   2.512       .  S
Cd349       O353   2.201       .  S
Cd349       O351   2.389       .  S
C352        O356   1.276       .  A
O357        C360   1.282       .  A
O357       Cd362   2.542       .  S
C358        O367   1.267       .  A
C358        O363   1.279       .  A
O359        C365   1.260       .  A
O359       Cd362   2.215       .  S
C360        O368   1.259       .  A
C360        C607   1.488       .  S
C361        O366   1.259   1_655  A
C361        O364   1.277       .  A
C361        C452   1.436       .  S
Cd362       O369   2.412       .  S
Cd362       O368   2.465       .  S
Cd362       O367   2.515       .  S
Cd362       O363   2.499       .  S
Cd362       O366   2.369       .  S
Cd362       O364   2.392   1_455  S
C365        O369   1.269       .  A
C365        C378   1.412       .  S
O370        C373   1.277       .  A
O370       Cd375   2.478       .  S
C371        O380   1.259       .  A
C371        O376   1.281       .  A
O372        C378   1.262       .  A
O372       Cd375   2.215       .  S
C373        O381   1.263       .  A
C374        O379   1.261       .  A
C374        O377   1.276       .  A
C374        C391   1.440       .  S
Cd375       O382   2.408       .  S
Cd375       O381   2.487       .  S
Cd375       O380   2.416       .  S
Cd375       O376   2.500       .  S
Cd375       O379   2.380       .  S
Cd375       O377   2.397       .  S
C378        O382   1.268       .  A
O383        C386   1.282       .  A
O383       Cd388   2.519       .  S
C384        O393   1.265       .  A
C384        O389   1.277       .  A
O385        C391   1.260       .  A
O385       Cd388   2.358       .  S
C386        O394   1.256       .  A
C387        O392   1.259       .  A
C387        O390   1.269       .  A
C387        C404   1.416       .  S
Cd388       O395   2.414       .  S
Cd388       O394   2.422       .  S
Cd388       O393   2.477       .  S
Cd388       O389   2.538       .  S
Cd388       O392   2.189       .  S
Cd388       O390   2.440       .  S
C391        O395   1.277       .  A
O396        C399   1.284       .  A
O396       Cd401   2.482       .  S
C397        O406   1.267       .  A
C397        O402   1.276       .  A
O398        C404   1.262       .  A
O398       Cd401   2.204       .  S
C399        O407   1.258       .  A
C400        O405   1.266       .  A
C400        O403   1.276       .  A
C400        C495   1.443       .  S
Cd401       O408   2.435       .  S
Cd401       O407   2.394       .  S
Cd401       O406   2.487       .  S
Cd401       O402   2.514       .  S
Cd401       O405   2.379       .  S
Cd401       O403   2.381       .  S
C404        O408   1.267       .  A
O409        C412   1.277       .  A
O409       Cd414   2.533       .  S
C410        O419   1.259       .  A
C410        O415   1.281       .  A
O411        C417   1.258       .  A
O411       Cd414   2.324       .  S
C412        O420   1.264       .  A
C413        O418   1.261       .  A
C413        O416   1.267       .  A
C413        C430   1.401       .  S
Cd414       O421   2.399       .  S
Cd414       O420   2.434       .  S
Cd414       O419   2.449       .  S
Cd414       O415   2.509       .  S
Cd414       O418   2.224       .  S
Cd414       O416   2.358       .  S
C417        O421   1.278       .  A
C417        C465   1.432       .  S
O422        C425   1.282       .  A
O422       Cd427   2.550       .  S
C423        O432   1.258       .  A
C423        O428   1.281       .  A
O424        C430   1.263       .  A
O424       Cd427   2.226       .  S
C425        O433   1.259       .  A
C426        O431   1.258       .  A
C426        O429   1.275       .  A
C426        C439   1.421       .  S
Cd427       O434   2.361       .  S
Cd427       O433   2.403       .  S
Cd427       O432   2.463       .  S
Cd427       O428   2.499       .  S
Cd427       O431   2.320       .  S
Cd427       O429   2.362       .  S
C430        O434   1.267       .  A
O435        C438   1.280       .  A
O435       Cd440   2.516       .  S
C436        O445   1.257       .  A
C436        O441   1.282       .  A
O437        C443   1.257       .  A
O437       Cd440   2.204       .  S
C438        O446   1.257       .  A
C439        O444   1.256       .  A
C439        O442   1.277       .  A
Cd440       O447   2.422       .  S
Cd440       O446   2.441       .  S
Cd440       O445   2.412       .  S
Cd440       O441   2.500       .  S
Cd440       O444   2.344       .  S
Cd440       O442   2.360       .  S
C443        O447   1.267       .  A
C443        C456   1.410       .  S
O448        C451   1.282       .  A
O448       Cd453   2.494       .  S
C449        O458   1.255       .  A
C449        O454   1.281       .  A
O450        C456   1.263       .  A
O450       Cd453   2.205       .  S
C451        O459   1.257       .  A
C451        C566   1.471       .  S
C452        O457   1.256       .  A
C452        O455   1.275       .  A
Cd453       O460   2.413       .  S
Cd453       O459   2.434       .  S
Cd453       O458   2.377       .  S
Cd453       O454   2.641       .  S
Cd453       O457   2.355       .  S
Cd453       O455   2.415       .  S
C456        O460   1.270       .  A
O461        C464   1.281       .  A
O461       Cd466   2.488       .  S
C462        O471   1.271       .  A
C462        O467   1.273       .  A
O463        C469   1.263       .  A
O463       Cd466   2.216       .  S
C464        O472   1.257       .  A
C465        O470   1.259       .  A
C465        O468   1.276       .  A
Cd466       O473   2.370       .  S
Cd466       O472   2.399       .  S
Cd466       O471   2.488       .  S
Cd466       O467   2.421       .  S
Cd466       O470   2.381       .  S
Cd466       O468   2.373       .  S
C469        O473   1.269       .  A
C469        C482   1.405       .  S
O474        C477   1.278       .  A
O474       Cd479   2.509       .  S
C475        O484   1.260       .  A
C475        O480   1.282       .  A
C475        C514   1.472       .  S
O476        C482   1.262       .  A
O476       Cd479   2.212       .  S
C477        O485   1.267       .  A
C478        O483   1.261       .  A
C478        O481   1.277       .  A
C478        C508   1.436       .  S
Cd479       O486   2.371       .  S
Cd479       O485   2.428       .  S
Cd479       O484   2.425       .  S
Cd479       O480   2.490       .  S
Cd479       O483   2.356       .  S
Cd479       O481   2.392       .  S
C482        O486   1.269       .  A
O487        C490   1.267       .  A
O487       Cd492   2.447       .  S
C488        O497   1.257       .  A
C488        O493   1.279       .  A
O489        C495   1.261       .  A
O489       Cd492   2.413       .  S
C490        O498   1.272       .  A
C491        O496   1.265       .  A
C491        O494   1.268       .  A
C491        C504   1.407       .  S
Cd492       O499   2.395       .  S
Cd492       O498   2.543       .  S
Cd492       O497   2.418       .  S
Cd492       O493   2.521       .  S
Cd492       O496   2.251       .  S
Cd492       O494   2.348       .  S
C495        O499   1.273       .  A
O500        C503   1.280       .  A
O500       Cd505   2.502       .  S
C501        O510   1.259       .  A
C501        O506   1.280       .  A
O502        C508   1.257       .  A
O502       Cd505   2.354   1_655  S
C503        O511   1.259       .  A
C503        C620   1.472       .  S
C504        O509   1.262       .  A
C504        O507   1.268       .  A
Cd505       O512   2.414   1_455  S
Cd505       O511   2.423       .  S
Cd505       O510   2.443       .  S
Cd505       O506   2.540       .  S
Cd505       O509   2.249       .  S
Cd505       O507   2.350       .  S
C508        O512   1.276       .  A
O513        C516   1.280       .  A
O513       Cd518   2.517       .  S
C514        O523   1.257       .  A
C514        O519   1.282       .  A
O515        C521   1.259       .  A
O515       Cd518   2.195       .  S
C516        O524   1.264       .  A
C517        O522   1.258       .  A
C517        O520   1.277       .  A
C517        C625   1.434       .  S
Cd518       O525   2.402       .  S
Cd518       O524   2.452       .  S
Cd518       O523   2.420       .  S
Cd518       O519   2.512       .  S
Cd518       O522   2.362       .  S
Cd518       O520   2.397       .  S
C521        O525   1.269       .  A
C521        C530   1.410       .  S
O526        C529   1.280       .  A
O526       Cd531   2.468       .  S
C527        O536   1.259       .  A
C527        O532   1.282       .  A
O528        C534   1.260       .  A
O528       Cd531   2.330       .  S
C529        O537   1.263       .  A
C530        O535   1.259       .  A
C530        O533   1.269       .  A
Cd531       O538   2.345       .  S
Cd531       O537   2.513       .  S
Cd531       O536   2.438       .  S
Cd531       O532   2.513       .  S
Cd531       O535   2.193       .  S
Cd531       O533   2.394       .  S
C534        O538   1.277       .  A
C534        C543   1.420   1_556  S
O539        C542   1.281       .  A
O539       Cd544   2.521       .  S
C540        O549   1.260       .  A
C540        O545   1.283       .  A
O541        C547   1.258       .  A
O541       Cd544   2.167       .  S
C542        O550   1.259       .  A
C543        O548   1.258       .  A
C543        O546   1.276       .  A
Cd544       O551   2.412       .  S
Cd544       O550   2.479       .  S
Cd544       O549   2.475       .  S
Cd544       O545   2.503       .  S
Cd544       O548   2.316       .  S
Cd544       O546   2.366       .  S
C547        O551   1.271       .  A
C547        C556   1.407       .  S
O552        C555   1.283       .  A
O552       Cd557   2.522       .  S
C553        O562   1.266       .  A
C553        O558   1.276       .  A
O554        C560   1.260       .  A
O554       Cd557   2.346       .  S
C555        O563   1.258       .  A
C556        O561   1.261       .  A
C556        O559   1.269       .  A
Cd557       O564   2.375   1_545  S
Cd557       O563   2.428       .  S
Cd557       O562   2.505       .  S
Cd557       O558   2.493       .  S
Cd557       O561   2.189       .  S
Cd557       O559   2.398       .  S
C560        O564   1.277   1_545  A
C560        C586   1.429   1_545  S
O565        C568   1.268       .  A
O565       Cd570   2.469       .  S
C566        O575   1.252       .  A
C566        O571   1.280       .  A
O567        C573   1.261       .  A
O567       Cd570   2.403       .  S
C568        O576   1.273       .  A
C569        O574   1.263       .  A
C569        O572   1.269       .  A
C569        C582   1.412       .  S
Cd570       O577   2.421       .  S
Cd570       O576   2.598       .  S
Cd570       O575   2.406       .  S
Cd570       O571   2.527       .  S
Cd570       O574   2.246       .  S
Cd570       O572   2.395       .  S
C573        O577   1.274       .  A
C573        C608   1.447       .  S
O578        C581   1.279       .  A
O578       Cd583   2.520       .  S
C579        O588   1.265       .  A
C579        O584   1.275       .  A
O580        C586   1.258       .  A
O580       Cd583   2.345       .  S
C581        O589   1.257       .  A
C582        O587   1.260       .  A
C582        O585   1.265       .  A
Cd583       O590   2.382       .  S
Cd583       O589   2.441       .  S
Cd583       O588   2.516       .  S
Cd583       O584   2.510       .  S
Cd583       O587   2.256       .  S
Cd583       O585   2.393       .  S
C586        O590   1.277       .  A
O591        C594   1.279       .  A
O591       Cd596   2.496       .  S
C592        O601   1.268       .  A
C592        O597   1.274       .  A
O593        C599   1.258       .  A
O593       Cd596   2.399       .  S
C594        O602   1.262       .  A
C595        O600   1.262       .  A
C595        O598   1.268       .  A
C595        C612   1.411       .  S
Cd596       O603   2.428       .  S
Cd596       O602   2.442       .  S
Cd596       O601   2.474       .  S
Cd596       O597   2.531       .  S
Cd596       O600   2.267       .  S
Cd596       O598   2.360       .  S
C599        O603   1.276       .  A
C599        C664   1.446   1_554  S
O604        C607   1.282       .  A
O604       Cd609   2.551       .  S
C605        O614   1.273       .  A
C605        O610   1.271       .  A
O606        C612   1.265       .  A
O606       Cd609   2.272       .  S
C607        O615   1.258       .  A
C608        O613   1.262       .  A
C608        O611   1.277       .  A
Cd609       O616   2.355       .  S
Cd609       O615   2.461       .  S
Cd609       O614   2.568       .  S
Cd609       O610   2.484       .  S
Cd609       O613   2.395   1_455  S
Cd609       O611   2.415   1_455  S
C612        O616   1.266       .  A
O617        C620   1.279       .  A
O617       Cd622   2.500       .  S
C618        C671   1.565       .  S
C618        O627   1.263       .  A
C618        O623   1.278       .  A
O619        C625   1.259       .  A
O619       Cd622   2.345   1_655  S
C620        O628   1.259       .  A
C621        O626   1.263       .  A
C621        O624   1.265       .  A
C621        C634   1.406       .  S
Cd622       O629   2.393   1_455  S
Cd622       O628   2.438       .  S
Cd622       O627   2.474       .  S
Cd622       O623   2.503       .  S
Cd622       O626   2.273       .  S
Cd622       O624   2.338       .  S
C625        O629   1.276       .  A
O630        C633   1.269       .  A
O630       Cd635   2.464       .  S
C631        O640   1.256       .  A
C631        O636   1.281       .  A
O632        C638   1.260   1_545  A
O632       Cd635   2.369       .  S
C633        C672   1.557       .  S
C633        O641   1.273       .  A
C634        O639   1.263       .  A
C634        O637   1.268       .  A
Cd635       O642   2.404   1_545  S
Cd635       O641   2.559       .  S
Cd635       O640   2.445       .  S
Cd635       O636   2.547       .  S
Cd635       O639   2.255       .  S
Cd635       O637   2.345       .  S
C638        O642   1.276       .  A
C638        C647   1.438       .  S
O643        C646   1.282       .  A
O643       Cd648   2.484       .  S
C644        O653   1.266       .  A
C644        O649   1.276       .  A
O645        C651   1.259       .  A
O645       Cd648   2.178       .  S
C646        O654   1.256       .  A
C647        O652   1.262       .  A
C647        O650   1.276       .  A
Cd648       O655   2.445       .  S
Cd648       O654   2.408       .  S
Cd648       O653   2.465       .  S
Cd648       O649   2.533       .  S
Cd648       O652   2.376       .  S
Cd648       O650   2.388       .  S
C651        O655   1.269       .  A
C651        C660   1.415       .  S
O656        C659   1.285       .  A
O656       Cd661   2.535       .  S
C657        O666   1.264   1_655  A
C657        O662   1.278   1_655  A
O658        C664   1.262       .  A
O658       Cd661   2.365       .  S
C659        O667   1.258       .  A
C660        O665   1.261       .  A
C660        O663   1.269       .  A
Cd661       O668   2.415       .  S
Cd661       O667   2.451       .  S
Cd661       O666   2.517       .  S
Cd661       O662   2.554       .  S
Cd661       O665   2.177       .  S
Cd661       O663   2.438       .  S
C664        O668   1.278       .  A
C669        C694   1.620       .  S
C669        C707   1.561       .  S
C669       C1317   1.594   1_556  S
C670        C684   1.602       .  S
C670        C697   1.637       .  S
C670       C1257   1.574   1_556  S
C671        C674   1.595       .  S
C671        C687   1.569       .  S
C671       C1077   1.584   1_556  S
C672        C677   1.593       .  S
C672        C704   1.582       .  S
C672       C1134   1.579   1_556  S
C673        C674   1.421       .  A
C673        C678   1.421       .  A
C673        H680   1.077       .  S
C674        C675   1.429   1_556  A
C675        C676   1.395   1_554  A
C675       Br682   1.932       .  S
C676        C677   1.412       .  A
C676        H681   1.064   1_556  S
C677        C678   1.431       .  A
C678       Br679   1.923       .  S
C683        C684   1.411       .  A
C683        C688   1.389       .  A
C683        H690   1.080       .  S
C684        C685   1.441   1_556  A
C685        C686   1.422       .  A
C685       Br692   1.916       .  S
C686        C687   1.413   1_554  A
C686        H691   1.080       .  S
C687        C688   1.423       .  A
C688       Br689   1.925       .  S
C693        C694   1.429   1_554  A
C693        C698   1.439       .  A
C693        H700   1.072       .  S
C694        C695   1.429       .  A
C695        C696   1.401       .  A
C695       Br702   1.934       .  S
C696        C697   1.416       .  A
C696        H701   1.061       .  S
C697        C698   1.441   1_556  A
C698       Br699   1.923       .  S
C703        C704   1.417       .  A
C703        C708   1.403       .  A
C703        H710   1.081       .  S
C704        C705   1.423   1_556  A
C705        C706   1.403       .  A
C705       Br712   1.913       .  S
C706        C707   1.413   1_554  A
C706        H711   1.084       .  S
C707        C708   1.429       .  A
C708       Br709   1.927       .  S
C713        C714   1.419       .  A
C713        C718   1.401       .  A
C713        H720   1.082       .  S
C714        C715   1.435       .  A
C715        C716   1.420       .  A
C715       Br722   1.924       .  S
C716        C717   1.418       .  A
C716        H721   1.077       .  S
C717        C718   1.411       .  A
C718       Br719   1.895       .  S
C723        C724   1.406       .  A
C723        C728   1.376       .  A
C723        H730   1.084       .  S
C724        C725   1.432       .  A
C725        C726   1.423       .  A
C725       Br732   1.919       .  S
C726        C727   1.418       .  A
C726        H731   1.080       .  S
C727        C728   1.420       .  A
C728       Br729   1.909       .  S
C733        C734   1.409       .  A
C733        C738   1.394       .  A
C733        H740   1.084       .  S
C734        C735   1.437       .  A
C735        C736   1.421       .  A
C735       Br742   1.918       .  S
C736        C737   1.415       .  A
C736        H741   1.077       .  S
C737        C738   1.423       .  A
C738       Br739   1.895       .  S
C743        C744   1.423       .  A
C743        C748   1.421       .  A
C743        H750   1.076       .  S
C744        C745   1.410       .  A
C745        C746   1.402       .  A
C745       Br752   1.912       .  S
C746        C747   1.425       .  A
C746        H751   1.082       .  S
C747        C748   1.428       .  A
C748       Br749   1.922       .  S
C753        C754   1.414       .  A
C753        C758   1.404       .  A
C753        H760   1.076       .  S
C754        C755   1.439       .  A
C755        C756   1.428       .  A
C755       Br762   1.925       .  S
C756        C757   1.416       .  A
C756        H761   1.083       .  S
C757        C758   1.424       .  A
C758       Br759   1.918       .  S
C763        C764   1.407       .  A
C763        C768   1.403       .  A
C763        H770   1.076       .  S
C764        C765   1.427       .  A
C765        C766   1.411       .  A
C765       Br772   1.920       .  S
C766        C767   1.414       .  A
C766        H771   1.083       .  S
C767        C768   1.432       .  A
C768       Br769   1.925       .  S
C773        C774   1.409       .  A
C773        C778   1.404       .  A
C773        H780   1.079       .  S
C774        C775   1.419       .  A
C775        C776   1.396       .  A
C775       Br782   1.910       .  S
C776        C777   1.410       .  A
C776        H781   1.066       .  S
C777        C778   1.436       .  A
C778       Br779   1.928       .  S
C783        C784   1.401       .  A
C783        C788   1.386       .  A
C783        H790   1.057       .  S
C784        C785   1.440       .  A
C785        C786   1.421       .  A
C785       Br792   1.925       .  S
C786        C787   1.416       .  A
C786        H791   1.081       .  S
C787        C788   1.417       .  A
C788       Br789   1.892       .  S
C793        C794   1.417       .  A
C793        C798   1.424       .  A
C793        H800   1.082       .  S
C794        C795   1.430       .  A
C795        C796   1.395       .  A
C795       Br802   1.928       .  S
C796        C797   1.413       .  A
C796        H801   1.082       .  S
C797        C798   1.428       .  A
C798       Br799   1.921       .  S
C803        C804   1.412       .  A
C803        C808   1.394       .  A
C803        H810   1.071       .  S
C804        C805   1.433       .  A
C805        C806   1.425       .  A
C805       Br812   1.923       .  S
C806        C807   1.422       .  A
C806        H811   1.082       .  S
C807        C808   1.422       .  A
C808       Br809   1.917       .  S
C813        C814   1.416       .  A
C813        C818   1.409       .  A
C813        H820   1.064       .  S
C814        C815   1.443       .  A
C815        C816   1.412       .  A
C815       Br822   1.921       .  S
C816        C817   1.409       .  A
C816        H821   1.075       .  S
C817        C818   1.428       .  A
C818       Br819   1.921       .  S
C823        C824   1.405       .  A
C823        C828   1.402       .  A
C823        H830   1.072       .  S
C824        C825   1.433       .  A
C825        C826   1.404       .  A
C825       Br832   1.922       .  S
C826        C827   1.404       .  A
C826        H831   1.072       .  S
C827        C828   1.438       .  A
C828       Br829   1.929       .  S
C833        C834   1.411       .  A
C833        C838   1.386       .  A
C833        H840   1.083       .  S
C834        C835   1.425       .  A
C835        C836   1.416       .  A
C835       Br842   1.925       .  S
C836        C837   1.415       .  A
C836        H841   1.077       .  S
C837        C838   1.428       .  A
C838       Br839   1.927       .  S
C843        C844   1.417       .  A
C843        C848   1.398       .  A
C843        H850   1.080       .  S
C844        C845   1.424       .  A
C845        C846   1.403       .  A
C845       Br852   1.926       .  S
C846        C847   1.414       .  A
C846        H851   1.078       .  S
C847        C848   1.432       .  A
C848       Br849   1.934       .  S
C853        C854   1.415       .  A
C853        C858   1.398       .  A
C853        H860   1.057       .  S
C854        C855   1.432       .  A
C855        C856   1.416       .  A
C855       Br862   1.923       .  S
C856        C857   1.414       .  A
C856        H861   1.075       .  S
C857        C858   1.416       .  A
C858       Br859   1.914       .  S
C863        C864   1.409       .  A
C863        C868   1.407       .  A
C863        H870   1.079       .  S
C864        C865   1.425       .  A
C865        C866   1.417       .  A
C865       Br872   1.920   1_556  S
C866        C867   1.418       .  A
C866        H871   1.083       .  S
C867        C868   1.434       .  A
C868       Br869   1.925       .  S
C873        C874   1.421       .  A
C873        C878   1.393       .  A
C873        H880   1.075       .  S
C874        C875   1.432       .  A
C875        C876   1.420       .  A
C875       Br882   1.930   1_556  S
C876        C877   1.420       .  A
C876        H881   1.083       .  S
C877        C878   1.427       .  A
C878       Br879   1.932       .  S
C883        C884   1.418       .  A
C883        C888   1.429       .  A
C883        H890   1.067   1_554  S
C884        C885   1.426       .  A
C885        C886   1.392       .  A
C885       Br892   1.930       .  S
C886        C887   1.414       .  A
C886        H891   1.067       .  S
C887        C888   1.447       .  A
C888       Br889   1.928       .  S
C893        C894   1.411   1_556  A
C893        C898   1.420       .  A
C893        H900   1.081       .  S
C894        C895   1.420       .  A
C895        C896   1.395       .  A
C895       Br902   1.916       .  S
C896        C897   1.416       .  A
C896        H901   1.081       .  S
C897        C898   1.439   1_554  A
C898       Br899   1.911       .  S
C903        C904   1.413   1_556  A
C903        C908   1.391       .  A
C903        H910   1.063       .  S
C904        C905   1.434       .  A
C905        C906   1.404       .  A
C905       Br912   1.928       .  S
C906        C907   1.412       .  A
C906        H911   1.081       .  S
C907        C908   1.419   1_554  A
C908       Br909   1.930       .  S
C913        C914   1.414       .  A
C913        C918   1.408       .  A
C913        H920   1.067       .  S
C914        C915   1.436   1_554  A
C915        C916   1.420       .  A
C915       Br922   1.920       .  S
C916        C917   1.413       .  A
C916        H921   1.075       .  S
C917        C918   1.427   1_556  A
C918       Br919   1.921       .  S
C923        C924   1.410       .  A
C923        C928   1.408       .  A
C923        H930   1.078       .  S
C924        C925   1.429       .  A
C925        C926   1.409       .  A
C925       Br932   1.927       .  S
C926        C927   1.410       .  A
C926        H931   1.068       .  S
C927        C928   1.442       .  A
C928       Br929   1.929       .  S
C933        C934   1.416       .  A
C933        C938   1.395       .  A
C933        H940   1.077   1_655  S
C934        C935   1.455       .  A
C935        C936   1.428       .  A
C935       Br942   1.933       .  S
C936        C937   1.422       .  A
C936        H941   1.075       .  S
C937        C938   1.399       .  A
C938       Br939   1.924   1_655  S
C943        C944   1.418       .  A
C943        C948   1.415       .  A
C943        H950   1.075       .  S
C944        C945   1.433       .  A
C945        C946   1.406       .  A
C945       Br952   1.928       .  S
C946        C947   1.411       .  A
C946        H951   1.065       .  S
C947        C948   1.436       .  A
C948       Br949   1.926       .  S
C953        C954   1.416       .  A
C953        C958   1.413       .  A
C953        H960   1.083       .  S
C954        C955   1.415       .  A
C955        C956   1.394       .  A
C955       Br962   1.916       .  S
C956        C957   1.415       .  A
C956        H961   1.074       .  S
C957        C958   1.426       .  A
C958       Br959   1.919       .  S
C963        C964   1.410       .  A
C963        C968   1.409       .  A
C963        H970   1.079       .  S
C964        C965   1.438       .  A
C965        C966   1.416       .  A
C965       Br972   1.927       .  S
C966        C967   1.421       .  A
C966        H971   1.080       .  S
C967        C968   1.429       .  A
C968       Br969   1.931       .  S
C973        C974   1.406       .  A
C973        C978   1.407       .  A
C973        H980   1.073       .  S
C974        C975   1.429       .  A
C975        C976   1.414       .  A
C975       Br982   1.915       .  S
C976        C977   1.417       .  A
C976        H981   1.082       .  S
C977        C978   1.421       .  A
C978       Br979   1.905       .  S
C983        C984   1.431       .  A
C983        C988   1.435       .  A
C983        H990   1.067       .  S
C984        C985   1.404       .  A
C985        C986   1.399       .  A
C985       Br992   1.932   1_655  S
C986        C987   1.420       .  A
C986        H991   1.080   1_655  S
C987        C988   1.446       .  A
C988       Br989   1.922       .  S
C993        C994   1.422       .  A
C993        C998   1.424       .  A
C993       H1000   1.082       .  S
C994        C995   1.444       .  A
C995        C996   1.398       .  A
C995      Br1002   1.937       .  S
C996        C997   1.406       .  A
C996       H1001   1.075       .  S
C997        C998   1.425       .  A
C998       Br999   1.919   1_556  S
C1003      C1004   1.425       .  A
C1003      C1008   1.416       .  A
C1003      H1010   1.077       .  S
C1004      C1005   1.432       .  A
C1005      C1006   1.402       .  A
C1005     Br1012   1.900       .  S
C1006      C1007   1.405       .  A
C1006      H1011   1.082       .  S
C1007      C1008   1.431       .  A
C1008     Br1009   1.925       .  S
C1013      C1014   1.410       .  A
C1013      C1018   1.399       .  A
C1013      H1020   1.083       .  S
C1014      C1015   1.432       .  A
C1015      C1016   1.426       .  A
C1015     Br1022   1.917   1_565  S
C1016      C1017   1.425       .  A
C1016      H1021   1.077   1_565  S
C1017      C1018   1.438       .  A
C1018     Br1019   1.906       .  S
C1023      C1024   1.411       .  A
C1023      C1028   1.402       .  A
C1023      H1030   1.073       .  S
C1024      C1025   1.428       .  A
C1025      C1026   1.404       .  A
C1025     Br1032   1.923       .  S
C1026      C1027   1.405       .  A
C1026      H1031   1.060       .  S
C1027      C1028   1.429       .  A
C1028     Br1029   1.932       .  S
C1033      C1034   1.418       .  A
C1033      C1038   1.419       .  A
C1033      H1040   1.074       .  S
C1034      C1035   1.429   1_565  A
C1035      C1036   1.382       .  A
C1035     Br1042   1.910       .  S
C1036      C1037   1.400   1_545  A
C1036      H1041   1.076       .  S
C1037      C1038   1.424       .  A
C1038     Br1039   1.922       .  S
C1043      C1044   1.408       .  A
C1043      C1048   1.394       .  A
C1043      H1050   1.075       .  S
C1044      C1045   1.426       .  A
C1045      C1046   1.414       .  A
C1045     Br1052   1.923   1_565  S
C1046      C1047   1.418       .  A
C1046      H1051   1.083       .  S
C1047      C1048   1.435       .  A
C1048     Br1049   1.932       .  S
C1053      C1054   1.421       .  A
C1053      C1058   1.420       .  A
C1053      H1060   1.076       .  S
C1054      C1055   1.420   1_565  A
C1055      C1056   1.384       .  A
C1055     Br1062   1.920       .  S
C1056      C1057   1.411   1_545  A
C1056      H1061   1.080       .  S
C1057      C1058   1.422       .  A
C1058     Br1059   1.920       .  S
C1063      C1064   1.415       .  A
C1063      C1068   1.417       .  A
C1063      H1070   1.077       .  S
C1064      C1065   1.420   1_565  A
C1065      C1066   1.409       .  A
C1065     Br1072   1.921       .  S
C1066      C1067   1.416   1_545  A
C1066      H1071   1.073       .  S
C1067      C1068   1.425       .  A
C1068     Br1069   1.920       .  S
C1073      C1074   1.411   1_455  A
C1073      C1078   1.407       .  A
C1073      H1080   1.081       .  S
C1074      C1075   1.428       .  A
C1075      C1076   1.410       .  A
C1075     Br1082   1.920       .  S
C1076      C1077   1.417   1_655  A
C1076      H1081   1.082   1_554  S
C1077      C1078   1.430       .  A
C1078     Br1079   1.908       .  S
C1083      C1084   1.416       .  A
C1083      C1088   1.390       .  A
C1083      H1090   1.075       .  S
C1084      C1085   1.444       .  A
C1085      C1086   1.435       .  A
C1085     Br1092   1.922       .  S
C1086      C1087   1.424       .  A
C1086      H1091   1.082       .  S
C1087      C1088   1.402       .  A
C1088     Br1089   1.882       .  S
C1093      C1094   1.414       .  A
C1093      C1098   1.392       .  A
C1093      H1100   1.081       .  S
C1094      C1095   1.429       .  A
C1095      C1096   1.414       .  A
C1095     Br1102   1.919   1_655  S
C1096      C1097   1.419       .  A
C1096      H1101   1.079       .  S
C1097      C1098   1.432       .  A
C1098     Br1099   1.927       .  S
C1103      C1104   1.412       .  A
C1103      C1108   1.394       .  A
C1103      H1110   1.062       .  S
C1104      C1105   1.447       .  A
C1105      C1106   1.436       .  A
C1105     Br1112   1.922       .  S
C1106      C1107   1.416       .  A
C1106      H1111   1.082       .  S
C1107      C1108   1.413       .  A
C1108     Br1109   1.912       .  S
C1113      C1114   1.421       .  A
C1113      C1118   1.408       .  A
C1113      H1120   1.078       .  S
C1114      C1115   1.417       .  A
C1115      C1116   1.415       .  A
C1115     Br1122   1.919       .  S
C1116      C1117   1.423       .  A
C1116      H1121   1.075       .  S
C1117      C1118   1.423       .  A
C1118     Br1119   1.923   1_655  S
C1123      C1124   1.415   1_455  A
C1123      C1128   1.416       .  A
C1123      H1130   1.077       .  S
C1124      C1125   1.426       .  A
C1125      C1126   1.413   1_655  A
C1125     Br1132   1.918       .  S
C1126      C1127   1.416       .  A
C1126      H1131   1.083   1_545  S
C1127      C1128   1.440       .  A
C1128     Br1129   1.930       .  S
C1133      C1134   1.413       .  A
C1133      C1138   1.411   1_545  A
C1133      H1140   1.083   1_554  S
C1134      C1135   1.433       .  A
C1135      C1136   1.404       .  A
C1135     Br1142   1.921       .  S
C1136      C1137   1.408   1_545  A
C1136      H1141   1.073       .  S
C1137      C1138   1.426       .  A
C1138     Br1139   1.919       .  S
C1143      C1144   1.412       .  A
C1143      C1148   1.401       .  A
C1143      H1150   1.067       .  S
C1144      C1145   1.432       .  A
C1145      C1146   1.430       .  A
C1145     Br1152   1.922       .  S
C1146      C1147   1.423       .  A
C1146      H1151   1.082       .  S
C1147      C1148   1.412       .  A
C1148     Br1149   1.916       .  S
C1153      C1154   1.409   1_545  A
C1153      C1158   1.400       .  A
C1153      H1160   1.079       .  S
C1154      C1155   1.427       .  A
C1155      C1156   1.417       .  A
C1155     Br1162   1.918       .  S
C1156      C1157   1.418       .  A
C1156      H1161   1.082       .  S
C1157      C1158   1.421   1_565  A
C1158     Br1159   1.898       .  S
C1163      C1164   1.411       .  A
C1163      C1168   1.405       .  A
C1163      H1170   1.074       .  S
C1164      C1165   1.428       .  A
C1165      C1166   1.430       .  A
C1165     Br1172   1.906   1_565  S
C1166      C1167   1.421       .  A
C1166      H1171   1.081   1_565  S
C1167      C1168   1.425       .  A
C1168     Br1169   1.921       .  S
C1173      C1174   1.409   1_545  A
C1173      C1178   1.401       .  A
C1173      H1180   1.074       .  S
C1174      C1175   1.429       .  A
C1175      C1176   1.421       .  A
C1175     Br1182   1.923       .  S
C1176      C1177   1.418       .  A
C1176      H1181   1.077       .  S
C1177      C1178   1.425   1_565  A
C1178     Br1179   1.912       .  S
C1183      C1184   1.413       .  A
C1183      C1188   1.407   1_545  A
C1183      H1190   1.080       .  S
C1184      C1185   1.424       .  A
C1185      C1186   1.414       .  A
C1185     Br1192   1.920       .  S
C1186      C1187   1.418   1_545  A
C1186      H1191   1.076       .  S
C1187      C1188   1.437       .  A
C1188     Br1189   1.931       .  S
C1193      C1194   1.409   1_455  A
C1193      C1198   1.413       .  A
C1193      H1200   1.076       .  S
C1194      C1195   1.439       .  A
C1195      C1196   1.408       .  A
C1195     Br1202   1.933       .  S
C1196      C1197   1.414   1_655  A
C1196      H1201   1.079       .  S
C1197      C1198   1.431       .  A
C1198     Br1199   1.909       .  S
C1203      C1204   1.415       .  A
C1203      C1208   1.419       .  A
C1203      H1210   1.081       .  S
C1204      C1205   1.424       .  A
C1205      C1206   1.384       .  A
C1205     Br1212   1.926       .  S
C1206      C1207   1.414       .  A
C1206      H1211   1.084       .  S
C1207      C1208   1.431       .  A
C1208     Br1209   1.919       .  S
C1213      C1214   1.416       .  A
C1213      C1218   1.401       .  A
C1213      H1220   1.074       .  S
C1214      C1215   1.428       .  A
C1215      C1216   1.424       .  A
C1215     Br1222   1.919       .  S
C1216      C1217   1.428       .  A
C1216      H1221   1.083       .  S
C1217      C1218   1.421       .  A
C1218     Br1219   1.919       .  S
C1223      C1224   1.420       .  A
C1223      C1228   1.412       .  A
C1223      H1230   1.080       .  S
C1224      C1225   1.427       .  A
C1225      C1226   1.414       .  A
C1225     Br1232   1.905       .  S
C1226      C1227   1.401       .  A
C1226      H1231   1.078       .  S
C1227      C1228   1.439       .  A
C1228     Br1229   1.930       .  S
C1233      C1234   1.427       .  A
C1233      C1238   1.435       .  A
C1233      H1240   1.083       .  S
C1234      C1235   1.410       .  A
C1235      C1236   1.394       .  A
C1235     Br1242   1.911       .  S
C1236      C1237   1.417       .  A
C1236      H1241   1.068       .  S
C1237      C1238   1.433       .  A
C1238     Br1239   1.919       .  S
C1243      C1244   1.419       .  A
C1243      C1248   1.405       .  A
C1243      H1250   1.070       .  S
C1244      C1245   1.429   1_455  A
C1245      C1246   1.415       .  A
C1245     Br1252   1.924       .  S
C1246      C1247   1.418       .  A
C1246      H1251   1.080       .  S
C1247      C1248   1.418   1_655  A
C1248     Br1249   1.927       .  S
C1253      C1254   1.412       .  A
C1253      C1258   1.406       .  A
C1253      H1260   1.077       .  S
C1254      C1255   1.436       .  A
C1255      C1256   1.416       .  A
C1255     Br1262   1.917       .  S
C1256      C1257   1.411       .  A
C1256      H1261   1.083       .  S
C1257      C1258   1.431       .  A
C1258     Br1259   1.925   1_554  S
C1263      C1264   1.408       .  A
C1263      C1268   1.390       .  A
C1263      H1270   1.084       .  S
C1264      C1265   1.436       .  A
C1265      C1266   1.423       .  A
C1265     Br1272   1.918       .  S
C1266      C1267   1.416       .  A
C1266      H1271   1.078       .  S
C1267      C1268   1.423       .  A
C1268     Br1269   1.907       .  S
C1273      C1274   1.404       .  A
C1273      C1278   1.388       .  A
C1273      H1280   1.074       .  S
C1274      C1275   1.433       .  A
C1275      C1276   1.430       .  A
C1275     Br1282   1.920       .  S
C1276      C1277   1.422       .  A
C1276      H1281   1.082       .  S
C1277      C1278   1.415       .  A
C1278     Br1279   1.884       .  S
C1283      C1284   1.418       .  A
C1283      C1288   1.413       .  A
C1283      H1290   1.083       .  S
C1284      C1285   1.432       .  A
C1285      C1286   1.399       .  A
C1285     Br1292   1.930       .  S
C1286      C1287   1.414       .  A
C1286      H1291   1.075       .  S
C1287      C1288   1.422       .  A
C1288     Br1289   1.913       .  S
C1293      C1294   1.407       .  A
C1293      C1298   1.389       .  A
C1293      H1300   1.084       .  S
C1294      C1295   1.440       .  A
C1295      C1296   1.423       .  A
C1295     Br1302   1.919       .  S
C1296      C1297   1.408       .  A
C1296      H1301   1.077       .  S
C1297      C1298   1.427       .  A
C1298     Br1299   1.908       .  S
C1303      C1304   1.421       .  A
C1303      C1308   1.419       .  A
C1303      H1310   1.075       .  S
C1304      C1305   1.428       .  A
C1305      C1306   1.413       .  A
C1305     Br1312   1.930       .  S
C1306      C1307   1.411       .  A
C1306      H1311   1.071       .  S
C1307      C1308   1.430       .  A
C1308     Br1309   1.922       .  S
C1313      C1314   1.406       .  A
C1313      C1318   1.397       .  A
C1313      H1320   1.077       .  S
C1314      C1315   1.430       .  A
C1315      C1316   1.418       .  A
C1315     Br1322   1.920       .  S
C1316      C1317   1.415       .  A
C1316      H1321   1.082   1_554  S
C1317      C1318   1.438       .  A
C1318     Br1319   1.933       .  S
C1323      C1324   1.417       .  A
C1323      C1328   1.422       .  A
C1323      H1330   1.077       .  S
C1324      C1325   1.438       .  A
C1325      C1326   1.418   1_545  A
C1325     Br1332   1.927   1_545  S
C1326      C1327   1.418   1_565  A
C1326      H1331   1.079       .  S
C1327      C1328   1.433       .  A
C1328     Br1329   1.918       .  S
C1333      C1334   1.430       .  A
C1333      C1338   1.417       .  A
C1333      H1340   1.082       .  S
C1334      C1335   1.434       .  A
C1335      C1336   1.407       .  A
C1335     Br1342   1.906       .  S
C1336      C1337   1.409       .  A
C1336      H1341   1.080       .  S
C1337      C1338   1.420       .  A
C1338     Br1339   1.917       .  S
C1343      C1344   1.413       .  A
C1343      C1348   1.417       .  A
C1343      H1350   1.082       .  S
C1344      C1345   1.437       .  A
C1345      C1346   1.411       .  A
C1345     Br1352   1.930       .  S
C1346      C1347   1.412       .  A
C1346      H1351   1.082       .  S
C1347      C1348   1.438       .  A
C1348     Br1349   1.930       .  S
C1353      C1354   1.416       .  A
C1353      C1358   1.403       .  A
C1353      H1360   1.083       .  S
C1354      C1355   1.426       .  A
C1355      C1356   1.426       .  A
C1355     Br1362   1.907       .  S
C1356      C1357   1.420       .  A
C1356      H1361   1.080       .  S
C1357      C1358   1.432       .  A
C1358     Br1359   1.934       .  S
C1363      C1364   1.408       .  A
C1363      C1368   1.403       .  A
C1363      H1370   1.080       .  S
C1364      C1365   1.426       .  A
C1365      C1366   1.417       .  A
C1365     Br1372   1.913       .  S
C1366      C1367   1.427       .  A
C1366      H1371   1.079       .  S
C1367      C1368   1.438       .  A
C1368     Br1369   1.911       .  S
C1373      C1374   1.418       .  A
C1373      C1378   1.417       .  A
C1373      H1380   1.083       .  S
C1374      C1375   1.411       .  A
C1375      C1376   1.395       .  A
C1375     Br1382   1.904       .  S
C1376      C1377   1.416       .  A
C1376      H1381   1.081       .  S
C1377      C1378   1.426       .  A
C1378     Br1379   1.907       .  S
C1383      C1384   1.424       .  A
C1383      C1388   1.405       .  A
C1383      H1390   1.076       .  S
C1384      C1385   1.427       .  A
C1385      C1386   1.427       .  A
C1385     Br1392   1.928       .  S
C1386      C1387   1.423       .  A
C1386      H1391   1.080       .  S
C1387      C1388   1.417       .  A
C1388     Br1389   1.910       .  S
