geometry optimzed in LAMMPS
_audit_creation_date              2020-11-30 
_audit_creation_method            'lammps2cif' 
_symmetry_space_group_name_H-M    'P1' 
_symmetry_Int_Tables_number       1 
_symmetry_cell_setting            triclinic 
loop_ 
_symmetry_equiv_pos_as_xyz 
  x,y,z 
_cell_length_a                    36.73802659 
_cell_length_b                    30.900331061341628 
_cell_length_c                    30.5404890466174 
_cell_angle_alpha                 83.82152542085878 
_cell_angle_beta                  78.32445085451513 
_cell_angle_gamma                 89.75595117144822 
loop_ 
_atom_site_label 
_atom_site_type_symbol 
_atom_site_fract_x 
_atom_site_fract_y 
_atom_site_fract_z 
_atom_site_charge 
O1          O  0.03582022  0.04006321  0.03190954    -0.74400
O2          O  0.45444317  0.45956378  0.04738531    -0.74400
O3          O  0.02854867  0.45250239  0.04423406    -0.74500
O4          O  0.46205292  0.04718048  0.03482758    -0.74500
O5          O  0.47224563  0.04380283  0.46065142    -0.74400
O6          O  0.03949011  0.44997883  0.46990575    -0.74400
O7          O  0.46564491  0.45600026  0.47317685    -0.74400
O8          O  0.04637825  0.03812725  0.45774674    -0.74500
Ni9        Ni  0.49494253  0.49971076  0.04257445     1.25400
Ni10       Ni  0.00638623  0.99709236  0.46237141     1.25400
C11         C  0.05431106  0.05259273  0.49253138     0.87800
C12         C  0.44668056  0.44452864  0.51268943     0.87700
C13         C  0.04537869  0.43623847  0.00888707     0.87800
C14         C  0.45584537  0.06079791  0.99596438     0.87900
O15         O  0.45612218  0.46068588  0.29680138    -0.74400
O16         O  0.03341799  0.04673830  0.27851281    -0.74400
O17         O  0.45967882  0.04837782  0.28082301    -0.74500
O18         O  0.03025380  0.45916120  0.29456663    -0.74500
O19         O  0.04059931  0.45412345  0.22083676    -0.74400
O20         O  0.46943353  0.04301617  0.20706962    -0.74400
O21         O  0.04424413  0.04158700  0.20470303    -0.74400
O22         O  0.46655475  0.45556419  0.22312255    -0.74500
Ni23       Ni  0.49479269  0.50404905  0.28960092     1.25400
Ni24       Ni  0.00561597  0.99832650  0.21151085     1.25400
C25         C  0.44810320  0.44432121  0.26303502     0.87800
C26         C  0.05197770  0.05783748  0.23867562     0.87700
C27         C  0.45248654  0.05979604  0.24199082     0.87800
C28         C  0.04760923  0.44250068  0.25976964     0.87900
O29         O  0.18615759  0.32298985  0.05066610    -0.80800
O30         O  0.32343264  0.20339583  0.01554577    -0.65500
O31         O  0.25102042  0.29003543  0.50049817    -1.12100
C32         C  0.17913224  0.16835194  0.48298130     1.06000
O33         O  0.31464860  0.17534286  0.45500172    -0.78700
O34         O  0.26279718  0.20337556  0.40961156    -0.66300
Ni35       Ni  0.23883710  0.33256997  0.04215344     1.34900
C36         C  0.24677230  0.23893186  0.40193060     0.84800
O37         O  0.32488145  0.29076562  0.01230945    -0.79300
O38         O  0.29026919  0.34680994  0.03655136    -0.89600
C39         C  0.33275662  0.17690298  0.48603532     0.84400
O40         O  0.23815279  0.29529384  0.09612906    -0.67800
O41         O  0.21027980  0.15104838  0.46867041    -0.87000
C42         C  0.25350018  0.25937145  0.10429687     0.85200
C43         C  0.32157800  0.32915337  0.02424432     1.06700
H44         H  0.24164980  0.19088264  0.03463191     0.38600
O45         O  0.24992484  0.20730101  0.00559826    -1.09700
O46         O  0.22631561  0.25786640  0.43269028    -0.66400
Ni47       Ni  0.21287472  0.24920416  0.49754512     1.26300
O48         O  0.27348048  0.23944783  0.07397484    -0.66600
O49         O  0.17583980  0.20628051  0.49598740    -0.78900
C50         C  0.16827264  0.32088061  0.01953824     0.84600
O51         O  0.17720717  0.29357929  0.49121408    -0.66100
Ni52       Ni  0.26192477  0.16544062  0.46328579     1.27400
Ni53       Ni  0.28789039  0.24806993  0.00927924     1.26100
H54         H  0.25941334  0.30610761  0.47101741     0.39100
O55         O  0.18534711  0.32380493  0.29996703    -0.80800
O56         O  0.32330973  0.20578118  0.26560415    -0.65500
O57         O  0.25073706  0.29186834  0.25119795    -1.12100
C58         C  0.17942129  0.16977659  0.23042347     1.06400
O59         O  0.31470187  0.17868666  0.20471277    -0.78700
O60         O  0.26216074  0.20338219  0.15948635    -0.66300
Ni61       Ni  0.23806088  0.33325651  0.29373764     1.34900
C62         C  0.24778621  0.23989604  0.15129803     0.84800
O63         O  0.32425844  0.29264706  0.26224854    -0.79300
O64         O  0.28976037  0.34750163  0.29012210    -0.89600
C65         C  0.33319512  0.18065550  0.23535434     0.84400
O66         O  0.23603575  0.29466264  0.34729636    -0.67800
O67         O  0.21065020  0.15128539  0.21967544    -0.87000
C68         C  0.25231253  0.25928053  0.35508766     0.85200
C69         C  0.32101950  0.33037396  0.27571024     1.06700
H70         H  0.24078238  0.19287013  0.28484438     0.38600
O71         O  0.24955427  0.20901991  0.25557499    -1.09700
O72         O  0.22861444  0.26041499  0.18165071    -0.66400
Ni73       Ni  0.21309005  0.25113820  0.24611469     1.26300
O74         O  0.27334025  0.24070643  0.32446741    -0.66600
O75         O  0.17638799  0.20854474  0.24147753    -0.78900
C76         C  0.16781698  0.32177598  0.26832064     0.84600
O77         O  0.17789882  0.29566564  0.23903800    -0.66100
Ni78       Ni  0.26217727  0.16690695  0.21381289     1.27400
Ni79       Ni  0.28746318  0.24986074  0.25964535     1.26100
H80         H  0.25945651  0.30859918  0.22218692     0.39100
C81         C  0.08414299  0.37908209  0.23299969    -0.12200
C82         C  0.07661293  0.40988049  0.26410890     0.04800
C83         C  0.09826706  0.41031741  0.29726802    -0.07500
C84         C  0.12681123  0.38048273  0.29858354    -0.08300
C85         C  0.13508998  0.35011090  0.26690174    -0.02800
C86         C  0.11305299  0.34946366  0.23389436     0.04000
N87         N  0.11987066  0.31980035  0.20041379     0.66500
H88         H  0.06781793  0.37837987  0.20722004     0.15400
H89         H  0.14337227  0.38226399  0.32395681     0.15100
N90         N  0.09367702  0.44297418  0.32765757     0.74200
O91         O  0.09654611  0.28964303  0.20159209    -0.39200
O92         O  0.14352870  0.32993065  0.16463864    -0.39200
O93         O  0.11439130  0.47655965  0.31854131    -0.39900
O94         O  0.07428357  0.43460173  0.36675254    -0.39900
C95         C  0.35615559  0.38288756  0.30847056    -0.12200
C96         C  0.35509979  0.35634808  0.27419161     0.04800
C97         C  0.38569976  0.35728550  0.23772210    -0.07500
C98         C  0.41607767  0.38509343  0.23571138    -0.08300
C99         C  0.41682759  0.41252136  0.26936185    -0.02800
C100        C  0.38659557  0.41072878  0.30649601     0.04000
N101        N  0.38520328  0.43868413  0.34114008     0.66500
H102        H  0.33283028  0.38264199  0.33664695     0.15400
H103        H  0.43884345  0.38599130  0.20682893     0.15100
N104        N  0.38516426  0.33297217  0.20059247     0.74200
O105        O  0.36938232  0.47488998  0.33799962    -0.39200
O106        O  0.39277556  0.42372296  0.37829512    -0.39200
O107        O  0.37352025  0.35069899  0.16696681    -0.39900
O108        O  0.40402794  0.29887996  0.19684343    -0.39900
C109        C  0.36855565  0.11620141  0.21063394    -0.12200
C110        C  0.36609106  0.15262680  0.23498960     0.04800
C111        C  0.39368174  0.15931674  0.25995517    -0.07500
C112        C  0.42200998  0.12898396  0.26129031    -0.08300
C113        C  0.42359570  0.09216064  0.23787402    -0.02800
C114        C  0.39665591  0.08590468  0.21220957     0.04000
N115        N  0.39527870  0.04689348  0.19120219     0.66500
H116        H  0.34743511  0.10982685  0.19187761     0.15400
H117        H  0.44292259  0.13424473  0.28072187     0.15100
N118        N  0.39400813  0.19702132  0.28318860     0.74200
O119        O  0.38132512  0.01259680  0.21469618    -0.39200
O120        O  0.40085191  0.04880922  0.14889223    -0.39200
O121        O  0.38270639  0.19381571  0.32527442    -0.39900
O122        O  0.41348027  0.22977957  0.26389239    -0.39900
C123        C  0.07979560  0.12471764  0.25745922    -0.12200
C124        C  0.08341882  0.08890969  0.23249290     0.04800
C125        C  0.11790899  0.08144904  0.20474450    -0.07500
C126        C  0.14838223  0.10892260  0.20359840    -0.08300
C127        C  0.14531152  0.14412467  0.22983731    -0.02800
C128        C  0.11016167  0.15241062  0.25623758     0.04000
N129        N  0.10509146  0.18714423  0.28407308     0.66500
H130        H  0.05333477  0.13070841  0.27890945     0.15400
H131        H  0.17487779  0.10188110  0.18286270     0.15100
N132        N  0.12317246  0.04408955  0.18043163     0.74200
O133        O  0.08896500  0.22107852  0.27182723    -0.39200
O134        O  0.10806863  0.17970039  0.32461874    -0.39200
O135        O  0.12105128  0.04744698  0.13948677    -0.39900
O136        O  0.12736151  0.00715565  0.20065726    -0.39900
C137        C  0.10829238  0.33830229  0.99505336    -0.12200
C138        C  0.13605605  0.34967088  0.01762617     0.04800
C139        C  0.13290328  0.38917828  0.03756294    -0.07500
C140        C  0.10209509  0.41537195  0.03583767    -0.08300
C141        C  0.07470551  0.40430603  0.01299998    -0.02800
C142        C  0.07788384  0.36543382  0.99226546     0.04000
N143        N  0.05003085  0.35229201  0.46968751     0.66500
H144        H  0.11008752  0.30818152  0.97961249     0.15400
H145        H  0.10057682  0.44592066  0.05054588     0.15100
N146        N  0.16212635  0.40520840  0.05638736     0.74200
O147        O  0.05687665  0.35492665  0.42730085    -0.39200
O148        O  0.02311186  0.32848237  0.99173671    -0.39200
O149        O  0.18847663  0.42721131  0.53110538    -0.39900
O150        O  0.15706635  0.40673733  0.09829266    -0.39900
C151        C  0.42048457  0.37607732  0.99642684    -0.12200
C152        C  0.41540682  0.41406961  0.01803657     0.04800
C153        C  0.38025622  0.42247957  0.54323687    -0.07500
C154        C  0.35067457  0.39354956  0.54589469    -0.08300
C155        C  0.35518159  0.35592725  0.02370023    -0.02800
C156        C  0.39090269  0.34675158  0.99938192     0.04000
N157        N  0.39757377  0.30862367  0.97652800     0.66500
H158        H  0.44760742  0.36916929  0.97704394     0.15400
H159        H  0.32368074  0.40166524  0.56468163     0.15100
N160        N  0.37347785  0.46208267  0.56360100     0.74200
O161        O  0.39754736  0.31106544  0.93502691    -0.39200
O162        O  0.41092859  0.27557893  0.99521029    -0.39200
O163        O  0.36248264  0.49488277  0.54182169    -0.39900
O164        O  0.37102772  0.46157559  0.60546209    -0.39900
C165        C  0.38894024  0.15449575  0.01745611    -0.12200
C166        C  0.36575088  0.14876673  0.48667934     0.04800
C167        C  0.37436961  0.11564630  0.45764191    -0.07500
C168        C  0.40495843  0.08920146  0.46004260    -0.08300
C169        C  0.42712615  0.09371660  0.49158318    -0.02800
C170        C  0.41932803  0.12731050  0.02021434     0.04000
N171        N  0.44255682  0.13508622  0.05097841     0.66500
H172        H  0.38338605  0.17993008  0.03960515     0.15400
H173        H  0.41020414  0.06328377  0.43841433     0.15100
N174        N  0.35127645  0.10636263  0.42720963     0.74200
O175        O  0.47233972  0.15692601  0.03673000    -0.39200
O176        O  0.42955477  0.12916391  0.09273256    -0.39200
O177        O  0.36370764  0.11349085  0.38540128    -0.39900
O178        O  0.32297473  0.08194772  0.44147837    -0.39900
C179        C  0.08648535  0.10951485  0.02313869    -0.12200
C180        C  0.08536796  0.08426218  0.48785362     0.04800
C181        C  0.11457414  0.08934655  0.44955405    -0.07500
C182        C  0.14425080  0.11794840  0.44827741    -0.08300
C183        C  0.14540099  0.14224766  0.48422307    -0.02800
C184        C  0.11599407  0.13846553  0.02151509     0.04000
N185        N  0.11633836  0.16177684  0.05939901     0.66500
H186        H  0.06419447  0.10664311  0.05263221     0.15400
H187        H  0.16692889  0.12066891  0.41918427     0.15100
N188        N  0.11553744  0.06447275  0.41250798     0.74200
O189        O  0.09811282  0.19633003  0.06336486    -0.39200
O190        O  0.12706159  0.14247070  0.59347516    -0.39200
O191        O  0.10883823  0.08094975  0.87667627    -0.39900
O192        O  0.13155622  0.02826777  0.41233279    -0.39900
O193        O  0.03553033  0.04012148  0.53195007    -0.74400
O194        O  0.45437803  0.45938207  0.54736287    -0.74400
O195        O  0.02863931  0.45250446  0.54418072    -0.74500
O196        O  0.46200268  0.04697776  0.53473628    -0.74500
O197        O  0.47229651  0.04397460  0.96074803    -0.74400
O198        O  0.03938883  0.44996066  0.96996376    -0.74400
O199        O  0.46572734  0.45623518  0.97319329    -0.74400
O200        O  0.04670383  0.03802174  0.95770796    -0.74500
Ni201      Ni  0.49478263  0.49965593  0.54249159     1.25400
Ni202      Ni  0.00659972  0.99714903  0.96230490     1.25400
C203        C  0.05465498  0.05245451  0.99249880     0.87800
C204        C  0.44671147  0.44479232  0.01268581     0.87700
C205        C  0.04547925  0.43626054  0.50882804     0.87800
C206        C  0.45576893  0.06058354  0.49588261     0.87900
O207        O  0.45618198  0.46096526  0.79730879    -0.74400
O208        O  0.03349393  0.04705651  0.77896809    -0.74400
O209        O  0.45992187  0.04863826  0.78032655    -0.74500
O210        O  0.03039651  0.45925016  0.79460169    -0.74500
O211        O  0.04069895  0.45407184  0.72089963    -0.74400
O212        O  0.46967399  0.04309199  0.70660926    -0.74400
O213        O  0.04434716  0.04190188  0.70515736    -0.74400
O214        O  0.46671123  0.45582894  0.72363170    -0.74500
Ni215      Ni  0.49485220  0.50434866  0.79013800     1.25400
Ni216      Ni  0.00575665  0.99861938  0.71194252     1.25400
C217        C  0.44821196  0.44459462  0.76351460     0.87800
C218        C  0.05208249  0.05813016  0.73913670     0.87700
C219        C  0.45275058  0.05998968  0.74147284     0.87800
C220        C  0.04770923  0.44249678  0.75984474     0.87900
O221        O  0.18620808  0.32299961  0.55066099    -0.80800
O222        O  0.32329215  0.20308083  0.51552185    -0.65500
O223        O  0.25105212  0.29022030  0.00052590    -1.12100
C224        C  0.17943579  0.16836845  0.98275123     1.06000
O225        O  0.31491499  0.17580125  0.95491040    -0.78700
O226        O  0.26304846  0.20361289  0.90949023    -0.66300
Ni227      Ni  0.23890341  0.33244247  0.54207749     1.34900
C228        C  0.24702788  0.23917083  0.90181725     0.84800
O229        O  0.32489582  0.29045291  0.51220234    -0.79300
O230        O  0.29034959  0.34653245  0.53645615    -0.89600
C231        C  0.33296254  0.17728463  0.98600876     0.84400
O232        O  0.23819344  0.29521121  0.59606944    -0.67800
O233        O  0.21062596  0.15112621  0.96850888    -0.87000
C234        C  0.25353489  0.25929422  0.60426196     0.85200
C235        C  0.32163748  0.32882304  0.52419175     1.06700
H236        H  0.24150481  0.19072677  0.53475128     0.38600
O237        O  0.24976358  0.20710880  0.50569749    -1.09700
O238        O  0.22654040  0.25808401  0.93257436    -0.66400
Ni239      Ni  0.21299098  0.24933053  0.99742246     1.26300
O240        O  0.27346569  0.23930645  0.57395501    -0.66600
O241        O  0.17605562  0.20632554  0.99569787    -0.78900
C242        C  0.16828038  0.32084911  0.51958543     0.84600
O243        O  0.17725927  0.29366123  0.99111500    -0.66100
Ni244      Ni  0.26222827  0.16568947  0.96315316     1.27400
Ni245      Ni  0.28781352  0.24782158  0.50925352     1.26100
H246        H  0.25946169  0.30634044  0.97106365     0.39100
O247        O  0.18550997  0.32390456  0.79996662    -0.80800
O248        O  0.32370366  0.20615634  0.76533848    -0.65500
O249        O  0.25094592  0.29211858  0.75113444    -1.12100
C250        C  0.17972419  0.16981101  0.73065701     1.06400
O251        O  0.31496739  0.17909556  0.70448395    -0.78700
O252        O  0.26220642  0.20337464  0.65948872    -0.66300
Ni253      Ni  0.23821180  0.33348088  0.79368933     1.34900
C254        C  0.24788960  0.23991721  0.65128011     0.84800
O255        O  0.32447565  0.29306120  0.76211382    -0.79300
O256        O  0.28988628  0.34782622  0.79007151    -0.89600
C257        C  0.33354390  0.18104944  0.73504389     0.84400
O258        O  0.23625655  0.29487737  0.84720813    -0.67800
O259        O  0.21094636  0.15128063  0.71999185    -0.87000
C260        C  0.25259154  0.25953612  0.85498251     0.85200
C261        C  0.32116820  0.33075944  0.77564815     1.06700
H262        H  0.24113061  0.19314637  0.78481912     0.38600
O263        O  0.24987139  0.20927225  0.75552137    -1.09700
O264        O  0.22884810  0.26055245  0.68162644    -0.66400
Ni265      Ni  0.21334831  0.25131171  0.74608941     1.26300
O266        O  0.27367505  0.24101496  0.82435711    -0.66600
O267        O  0.17669835  0.20865130  0.74150199    -0.78900
C268        C  0.16795433  0.32182732  0.76835381     0.84600
O269        O  0.17808150  0.29576348  0.73903524    -0.66100
Ni270      Ni  0.26246694  0.16708030  0.71385219     1.27400
Ni271      Ni  0.28774997  0.25018517  0.75952019     1.26100
H272        H  0.25961991  0.30886346  0.72212425     0.39100
C273        C  0.08413122  0.37895001  0.73321422    -0.12200
C274        C  0.07666870  0.40982872  0.76424393     0.04800
C275        C  0.09835609  0.41030089  0.79736726    -0.07500
C276        C  0.12690920  0.38047603  0.79866801    -0.08300
C277        C  0.13516275  0.35007469  0.76701274    -0.02800
C278        C  0.11304470  0.34933268  0.73410146     0.04000
N279        N  0.11977957  0.31957385  0.70070997     0.66500
H280        H  0.06775928  0.37819591  0.70748807     0.15400
H281        H  0.14351085  0.38230639  0.82399219     0.15100
N282        N  0.09380344  0.44299141  0.82771877     0.74200
O283        O  0.09635983  0.28950441  0.70194756    -0.39200
O284        O  0.14345742  0.32956716  0.66492125    -0.39200
O285        O  0.11451421  0.47657865  0.81852550    -0.39900
O286        O  0.07451406  0.43461531  0.86687100    -0.39900
C287        C  0.35634215  0.38292073  0.80879065    -0.12200
C288        C  0.35520206  0.35675625  0.77422676     0.04800
C289        C  0.38568532  0.35804396  0.73760268    -0.07500
C290        C  0.41607684  0.38576343  0.73576229    -0.08300
C291        C  0.41693634  0.41281180  0.76971580    -0.02800
C292        C  0.38678884  0.41071174  0.80697092     0.04000
N293        N  0.38549093  0.43829274  0.84192028     0.66500
H294        H  0.33308345  0.38241081  0.83707661     0.15400
H295        H  0.43875587  0.38691061  0.70676291     0.15100
N296        N  0.38499003  0.33421701  0.70016501     0.74200
O297        O  0.36972806  0.47456538  0.83916125    -0.39200
O298        O  0.39309133  0.42294114  0.87894052    -0.39200
O299        O  0.37335159  0.35241888  0.66673664    -0.39900
O300        O  0.40367665  0.30002837  0.69601436    -0.39900
C301        C  0.36884188  0.11657040  0.71018611    -0.12200
C302        C  0.36645818  0.15300593  0.73453261     0.04800
C303        C  0.39412504  0.15966605  0.75939149    -0.07500
C304        C  0.42243473  0.12929462  0.76065919    -0.08300
C305        C  0.42392241  0.09243895  0.73729727    -0.02800
C306        C  0.39690879  0.08620738  0.71172538     0.04000
N307        N  0.39537688  0.04712589  0.69087162     0.66500
H308        H  0.34765558  0.11021259  0.69151848     0.15400
H309        H  0.44339724  0.13453337  0.78002771     0.15100
N310        N  0.39451299  0.19735229  0.78263673     0.74200
O311        O  0.38170306  0.01281604  0.71458435    -0.39200
O312        O  0.40050883  0.04895042  0.64859528    -0.39200
O313        O  0.38359467  0.19405061  0.82478325    -0.39900
O314        O  0.41362994  0.23030216  0.76313360    -0.39900
C315        C  0.08004774  0.12493908  0.75787241    -0.12200
C316        C  0.08358880  0.08910476  0.73295128     0.04800
C317        C  0.11806978  0.08149632  0.70525208    -0.07500
C318        C  0.14859678  0.10890263  0.70404479    -0.08300
C319        C  0.14559573  0.14415213  0.73020724    -0.02800
C320        C  0.11048002  0.15253281  0.75663068     0.04000
N321        N  0.10553268  0.18720996  0.78453942     0.66500
H322        H  0.05360816  0.13100961  0.77932435     0.15400
H323        H  0.17507577  0.10177369  0.68332645     0.15100
N324        N  0.12327231  0.04403176  0.68109365     0.74200
O325        O  0.08934858  0.22116890  0.77248056    -0.39200
O326        O  0.10873582  0.17970427  0.82500087    -0.39200
O327        O  0.12117207  0.04724993  0.64014623    -0.39900
O328        O  0.12744177  0.00715503  0.70144873    -0.39900
C329        C  0.10834673  0.33830880  0.49504121    -0.12200
C330        C  0.13608421  0.34965156  0.51766369     0.04800
C331        C  0.13293756  0.38915507  0.53760347    -0.07500
C332        C  0.10216235  0.41538092  0.53581953    -0.08300
C333        C  0.07479639  0.40433428  0.51294164    -0.02800
C334        C  0.07796602  0.36546327  0.49220864     0.04000
N335        N  0.04993143  0.35224089  0.96978231     0.66500
H336        H  0.11013987  0.30819044  0.47959587     0.15400
H337        H  0.10064223  0.44592473  0.55053714     0.15100
N338        N  0.16212463  0.40513237  0.55652219     0.74200
O339        O  0.05672062  0.35494316  0.92739333    -0.39200
O340        O  0.02317150  0.32858618  0.49162802    -0.39200
O341        O  0.18854505  0.42708231  0.03085431    -0.39900
O342        O  0.15707709  0.40637855  0.59846766    -0.39900
C343        C  0.42063352  0.37550324  0.49690365    -0.12200
C344        C  0.41543469  0.41373153  0.51810302     0.04800
C345        C  0.38029947  0.42264995  0.04348251    -0.07500
C346        C  0.35070282  0.39371881  0.04616448    -0.08300
C347        C  0.35524821  0.35554596  0.52377125    -0.02800
C348        C  0.39107389  0.34612107  0.49992300     0.04000
N349        N  0.39791083  0.30759870  0.47775281     0.66500
H350        H  0.44783786  0.36843309  0.47784338     0.15400
H351        H  0.32376738  0.40166409  0.06523509     0.15100
N352        N  0.37358295  0.46211561  0.06411157     0.74200
O353        O  0.39859936  0.30949118  0.43611630    -0.39200
O354        O  0.41074271  0.27468556  0.49731313    -0.39200
O355        O  0.36245565  0.49500670  0.04260229    -0.39900
O356        O  0.37128820  0.46137550  0.10596904    -0.39900
C357        C  0.38873591  0.15413599  0.51747509    -0.12200
C358        C  0.36593953  0.14912764  0.98667733     0.04800
C359        C  0.37450997  0.11596627  0.95768516    -0.07500
C360        C  0.40505936  0.08946792  0.96011709    -0.08300
C361        C  0.42724685  0.09398236  0.99163614    -0.02800
C362        C  0.41915330  0.12699780  0.52020925     0.04000
N363        N  0.44235491  0.13477638  0.55100291     0.66500
H364        H  0.38314526  0.17953459  0.53966290     0.15400
H365        H  0.41026220  0.06351902  0.93852372     0.15100
N366        N  0.35140116  0.10670117  0.92726600     0.74200
O367        O  0.47212390  0.15664928  0.53678897    -0.39200
O368        O  0.42932378  0.12885254  0.59274931    -0.39200
O369        O  0.36372553  0.11412008  0.88545897    -0.39900
O370        O  0.32322046  0.08208291  0.94147370    -0.39900
C371        C  0.08623017  0.10942527  0.52338740    -0.12200
C372        C  0.08576784  0.08403935  0.98781480     0.04800
C373        C  0.11513797  0.08877409  0.94968666    -0.07500
C374        C  0.14477450  0.11746719  0.94831393    -0.08300
C375        C  0.14576072  0.14213056  0.98403769    -0.02800
C376        C  0.11574434  0.13834962  0.52182243     0.04000
N377        N  0.11618704  0.16142927  0.55984239     0.66500
H378        H  0.06404659  0.10633722  0.55299364     0.15400
H379        H  0.16755823  0.11995100  0.91934289     0.15100
N380        N  0.11633591  0.06338898  0.91298051     0.74200
O381        O  0.09825680  0.19618634  0.56383575    -0.39200
O382        O  0.12753597  0.14317751  0.09296803    -0.39200
O383        O  0.10773153  0.08248301  0.37655038    -0.39900
O384        O  0.13223703  0.02711229  0.91350233    -0.39900
O385        O  0.03559447  0.54002556  0.03190006    -0.74400
O386        O  0.45425058  0.95946745  0.04741227    -0.74400
O387        O  0.02868904  0.95253793  0.04431505    -0.74500
O388        O  0.46228115  0.54726287  0.03477019    -0.74500
O389        O  0.47226523  0.54383987  0.46063584    -0.74400
O390        O  0.03949734  0.95001341  0.47003780    -0.74400
O391        O  0.46563839  0.95596102  0.47309312    -0.74400
O392        O  0.04638843  0.53809017  0.45767420    -0.74500
Ni393      Ni  0.49473198  0.99964064  0.04258593     1.25400
Ni394      Ni  0.00638912  0.49707134  0.46226927     1.25400
C395        C  0.05432063  0.55253031  0.49247232     0.87800
C396        C  0.44668594  0.94444268  0.51260384     0.87700
C397        C  0.04551278  0.93621630  0.00900101     0.87800
C398        C  0.45607418  0.56085023  0.99589832     0.87900
O399        O  0.45597010  0.96070441  0.29694919    -0.74400
O400        O  0.03327694  0.54677657  0.27866220    -0.74400
O401        O  0.45981241  0.54836450  0.28064647    -0.74500
O402        O  0.03036138  0.95910072  0.29443094    -0.74500
O403        O  0.04067054  0.95404092  0.22070747    -0.74400
O404        O  0.46949730  0.54297045  0.20690459    -0.74400
O405        O  0.04413970  0.54164675  0.20484839    -0.74400
O406        O  0.46645946  0.95562608  0.22326046    -0.74500
Ni407      Ni  0.49464098  0.00405123  0.28981871     1.25400
Ni408      Ni  0.00552938  0.49836945  0.21161595     1.25400
C409        C  0.44797846  0.94436710  0.26315411     0.87800
C410        C  0.05187223  0.55786198  0.23884150     0.87700
C411        C  0.45258838  0.55977746  0.24182998     0.87800
C412        C  0.04768069  0.94240457  0.25963890     0.87900
O413        O  0.18610657  0.82265516  0.05087770    -0.80800
O414        O  0.32336313  0.70305868  0.01561623    -0.65500
O415        O  0.25097965  0.79000000  0.50055462    -1.12100
C416        C  0.17907475  0.66835924  0.48297701     1.06000
O417        O  0.31459028  0.67528426  0.45502960    -0.78700
O418        O  0.26276860  0.70337720  0.40965167    -0.66300
Ni419      Ni  0.23878448  0.83224737  0.04229549     1.34900
C420        C  0.24675128  0.73893596  0.40196919     0.84800
O421        O  0.32482814  0.79043430  0.01241619    -0.79300
O422        O  0.29021315  0.84648172  0.03664660    -0.89600
C423        C  0.33271059  0.67686829  0.48604584     0.84400
O424        O  0.23813759  0.79497101  0.09624802    -0.67800
O425        O  0.21022105  0.65105792  0.46866269    -0.87000
C426        C  0.25346790  0.75903761  0.10440599     0.85200
C427        C  0.32152186  0.82882540  0.02435016     1.06700
H428        H  0.24158026  0.69054698  0.03474398     0.38600
O429        O  0.24984082  0.70698236  0.00571319    -1.09700
O430        O  0.22627789  0.75786485  0.43272468    -0.66400
Ni431      Ni  0.21282453  0.74918752  0.49758695     1.26300
O432        O  0.27342681  0.73909934  0.07408001    -0.66600
O433        O  0.17578106  0.70627838  0.49600786    -0.78900
C434        C  0.16820331  0.82058074  0.01976626     0.84600
O435        O  0.17716253  0.79358182  0.49128587    -0.66100
Ni436      Ni  0.26186455  0.66541850  0.46330763     1.27400
Ni437      Ni  0.28782110  0.74774137  0.00938279     1.26100
H438        H  0.25937640  0.80607232  0.47107850     0.39100
O439        O  0.18527822  0.82357943  0.29998541    -0.80800
O440        O  0.32339399  0.70578418  0.26564384    -0.65500
O441        O  0.25070755  0.79174574  0.25122496    -1.12100
C442        C  0.17949327  0.66947908  0.23068610     1.06400
O443        O  0.31474591  0.67866804  0.20478335    -0.78700
O444        O  0.26211779  0.70307180  0.15962485    -0.66300
Ni445      Ni  0.23797962  0.83315815  0.29372170     1.34900
C446        C  0.24776458  0.73959129  0.15140939     0.84800
O447        O  0.32422661  0.79266760  0.26224117    -0.79300
O448        O  0.28966438  0.84749979  0.29007456    -0.89600
C449        C  0.33327583  0.68066189  0.23538456     0.84400
O450        O  0.23600334  0.79462561  0.34730598    -0.67800
O451        O  0.21072187  0.65097193  0.21998294    -0.87000
C452        C  0.25231025  0.75927280  0.35512204     0.85200
C453        C  0.32094179  0.83040434  0.27567619     1.06700
H454        H  0.24084963  0.69277216  0.28498433     0.38600
O455        O  0.24960415  0.70889415  0.25569127    -1.09700
O456        O  0.22862737  0.76015759  0.18174278    -0.66400
Ni457      Ni  0.21310197  0.75094444  0.24619789     1.26300
O458        O  0.27337181  0.74070593  0.32452058    -0.66600
O459        O  0.17645230  0.70828652  0.24162011    -0.78900
C460        C  0.16774295  0.82150821  0.26835103     0.84600
O461        O  0.17785837  0.79540716  0.23906809    -0.66100
Ni462      Ni  0.26224139  0.66672194  0.21399957     1.27400
Ni463      Ni  0.28748142  0.74980622  0.25969256     1.26100
H464        H  0.25940382  0.80845966  0.22220579     0.39100
C465        C  0.08412357  0.87887340  0.23294153    -0.12200
C466        C  0.07663777  0.90972460  0.26400323     0.04800
C467        C  0.09824723  0.91010238  0.29721455    -0.07500
C468        C  0.12674451  0.88021886  0.29858132    -0.08300
C469        C  0.13499983  0.84981611  0.26693322    -0.02800
C470        C  0.11295535  0.84915460  0.23393680     0.04000
N471        N  0.11964117  0.81930937  0.20063053     0.66500
H472        H  0.06779783  0.87817010  0.20716290     0.15400
H473        H  0.14328946  0.88198645  0.32397312     0.15100
N474        N  0.09364123  0.94272314  0.32764301     0.74200
O475        O  0.09645715  0.78887062  0.20234599    -0.39200
O476        O  0.14294796  0.82944519  0.16455321    -0.39200
O477        O  0.11429580  0.97635793  0.31852099    -0.39900
O478        O  0.07433246  0.93425982  0.36677335    -0.39900
C479        C  0.35606371  0.88284761  0.30852368    -0.12200
C480        C  0.35499274  0.85641626  0.27416234     0.04800
C481        C  0.38555804  0.85746580  0.23764402    -0.07500
C482        C  0.41592630  0.88527139  0.23567408    -0.08300
C483        C  0.41670207  0.91258084  0.26942053    -0.02800
C484        C  0.38649912  0.91067904  0.30659778     0.04000
N485        N  0.38514250  0.93848915  0.34136105     0.66500
H486        H  0.33276179  0.88250795  0.33673933     0.15400
H487        H  0.43866823  0.88625007  0.20675801     0.15100
N488        N  0.38500024  0.83325560  0.20044538     0.74200
O489        O  0.36930152  0.97469638  0.33839710    -0.39200
O490        O  0.39275949  0.92338359  0.37844858    -0.39200
O491        O  0.37343080  0.85111044  0.16681952    -0.39900
O492        O  0.40379083  0.79911256  0.19665346    -0.39900
C493        C  0.36866684  0.61627110  0.21053774    -0.12200
C494        C  0.36619554  0.65265515  0.23495443     0.04800
C495        C  0.39380440  0.65932155  0.25989943    -0.07500
C496        C  0.42212153  0.62896377  0.26121441    -0.08300
C497        C  0.42370804  0.59217232  0.23774212    -0.02800
C498        C  0.39678281  0.58598512  0.21203938     0.04000
N499        N  0.39545562  0.54706495  0.19087090     0.66500
H500        H  0.34755117  0.60992858  0.19176335     0.15400
H501        H  0.44304135  0.63419774  0.28064382     0.15100
N502        N  0.39419476  0.69706331  0.28306370     0.74200
O503        O  0.38140104  0.51273289  0.21420157    -0.39200
O504        O  0.40118057  0.54911897  0.14854429    -0.39200
O505        O  0.38314039  0.69388015  0.32518588    -0.39900
O506        O  0.41349122  0.72988740  0.26358171    -0.39900
C507        C  0.07986320  0.62449774  0.25790124    -0.12200
C508        C  0.08336904  0.58884846  0.23271553     0.04800
C509        C  0.11781923  0.58140163  0.20486308    -0.07500
C510        C  0.14834879  0.60877340  0.20376553    -0.08300
C511        C  0.14537278  0.64384131  0.23016638    -0.02800
C512        C  0.11029018  0.65206561  0.25675274     0.04000
N513        N  0.10537414  0.68656357  0.28488948     0.66500
H514        H  0.05345260  0.63044576  0.27947918     0.15400
H515        H  0.17480813  0.60177095  0.18292540     0.15100
N516        N  0.12299254  0.54413090  0.18041099     0.74200
O517        O  0.08938416  0.72070450  0.27291841    -0.39200
O518        O  0.10841489  0.67877618  0.32538426    -0.39200
O519        O  0.12068996  0.54760710  0.13952165    -0.39900
O520        O  0.12726783  0.50714808  0.20048011    -0.39900
C521        C  0.10821219  0.83808298  0.99534308    -0.12200
C522        C  0.13601605  0.84941909  0.01786991     0.04800
C523        C  0.13294396  0.88895393  0.03775485    -0.07500
C524        C  0.10219417  0.91523465  0.03598171    -0.08300
C525        C  0.07477062  0.90420670  0.01317795    -0.02800
C526        C  0.07784738  0.86528151  0.99253769     0.04000
N527        N  0.04979472  0.85216761  0.47023158     0.66500
H528        H  0.10993933  0.80793313  0.97995889     0.15400
H529        H  0.10074386  0.94580817  0.05063738     0.15100
N530        N  0.16219135  0.90491235  0.05658506     0.74200
O531        O  0.05645018  0.85478074  0.42784866    -0.39200
O532        O  0.02296656  0.82845879  0.99222487    -0.39200
O533        O  0.18867356  0.92710545  0.53080980    -0.39900
O534        O  0.15720319  0.90622253  0.09851684    -0.39900
C535        C  0.42039330  0.87586801  0.99653521    -0.12200
C536        C  0.41526222  0.91389093  0.01809300     0.04800
C537        C  0.38033611  0.92220627  0.54346533    -0.07500
C538        C  0.35074910  0.89328175  0.54613495    -0.08300
C539        C  0.35511054  0.85562374  0.02381845    -0.02800
C540        C  0.39084653  0.84647997  0.99952226     0.04000
N541        N  0.39756719  0.80832228  0.97672550     0.66500
H542        H  0.44752835  0.86898755  0.97716556     0.15400
H543        H  0.32380963  0.90124980  0.56517810     0.15100
N544        N  0.37362887  0.96162109  0.56418838     0.74200
O545        O  0.39750712  0.81068728  0.93523666    -0.39200
O546        O  0.41100379  0.77535070  0.99542818    -0.39200
O547        O  0.36236439  0.99451426  0.54282518    -0.39900
O548        O  0.37151414  0.96082097  0.60602115    -0.39900
C549        C  0.38905985  0.65445642  0.01730874    -0.12200
C550        C  0.36574085  0.64878800  0.48664594     0.04800
C551        C  0.37443668  0.61575026  0.45752115    -0.07500
C552        C  0.40505010  0.58934110  0.45990354    -0.08300
C553        C  0.42715395  0.59379565  0.49152614    -0.02800
C554        C  0.41952928  0.62738552  0.02000754     0.04000
N555        N  0.44288063  0.63538683  0.05056503     0.66500
H556        H  0.38354840  0.67999088  0.03934089     0.15400
H557        H  0.41035308  0.56348334  0.43820664     0.15100
N558        N  0.35138714  0.60649408  0.42703187     0.74200
O559        O  0.47255034  0.65739252  0.03610592    -0.39200
O560        O  0.43006451  0.62946813  0.09236109    -0.39200
O561        O  0.36380041  0.61384434  0.38523780    -0.39900
O562        O  0.32319022  0.58189072  0.44118605    -0.39900
C563        C  0.08638029  0.60926973  0.02329385    -0.12200
C564        C  0.08536630  0.58420559  0.48781894     0.04800
C565        C  0.11456164  0.58933186  0.44951265    -0.07500
C566        C  0.14420514  0.61798362  0.44822962    -0.08300
C567        C  0.14535026  0.64225346  0.48420031    -0.02800
C568        C  0.11593028  0.63814364  0.02171650     0.04000
N569        N  0.11640858  0.66122644  0.05972515     0.66500
H570        H  0.06417557  0.60625705  0.05287810     0.15400
H571        H  0.16687545  0.62074192  0.41912747     0.15100
N572        N  0.11557113  0.56440705  0.41249530     0.74200
O573        O  0.09810168  0.69568673  0.06405390    -0.39200
O574        O  0.12700830  0.64212563  0.59354089    -0.39200
O575        O  0.10807541  0.58186333  0.87655535    -0.39900
O576        O  0.13160576  0.52821154  0.41238132    -0.39900
O577        O  0.03554124  0.54003900  0.53188427    -0.74400
O578        O  0.45439666  0.95925252  0.54729108    -0.74400
O579        O  0.02865360  0.95258074  0.54430698    -0.74500
O580        O  0.46202654  0.54709501  0.53470662    -0.74500
O581        O  0.47255617  0.54403481  0.96069086    -0.74400
O582        O  0.03957396  0.94993371  0.97005262    -0.74400
O583        O  0.46551608  0.95615244  0.97321877    -0.74400
O584        O  0.04642574  0.53805313  0.95769328    -0.74500
Ni585      Ni  0.49478143  0.99953707  0.54245867     1.25400
Ni586      Ni  0.00635277  0.49713043  0.96230636     1.25400
C587        C  0.05439822  0.55246263  0.99248439     0.87800
C588        C  0.44652562  0.94467798  0.01271879     0.87700
C589        C  0.04548801  0.93631649  0.50896610     0.87800
C590        C  0.45579199  0.56066004  0.49584525     0.87900
O591        O  0.45613668  0.96097029  0.79673891    -0.74400
O592        O  0.03350206  0.54687172  0.77852120    -0.74400
O593        O  0.45987505  0.54863844  0.78107098    -0.74500
O594        O  0.03047878  0.95942200  0.79492706    -0.74500
O595        O  0.04083045  0.95438627  0.72119717    -0.74400
O596        O  0.46963681  0.54318768  0.70733473    -0.74400
O597        O  0.04436827  0.54158348  0.70473078    -0.74400
O598        O  0.46661182  0.95571343  0.72308989    -0.74500
Ni599      Ni  0.49484573  0.00431544  0.78946916     1.25400
Ni600      Ni  0.00569021  0.49838135  0.71159716     1.25400
C601        C  0.44812137  0.94454982  0.76299773     0.87800
C602        C  0.05209822  0.55787270  0.73868099     0.87700
C603        C  0.45267029  0.55999231  0.74223322     0.87800
C604        C  0.04781895  0.94273856  0.76013876     0.87900
O605        O  0.18618892  0.82297163  0.55074523    -0.80800
O606        O  0.32323005  0.70302127  0.51555299    -0.65500
O607        O  0.25098070  0.78990418  0.00065993    -1.12100
C608        C  0.17930072  0.66814902  0.98286353     1.06000
O609        O  0.31481185  0.67535370  0.95503554    -0.78700
O610        O  0.26297752  0.70341798  0.90961217    -0.66300
Ni611      Ni  0.23888763  0.83241094  0.54213397     1.34900
C612        C  0.24690505  0.73895053  0.90197114     0.84800
O613        O  0.32485510  0.79038152  0.51223161    -0.79300
O614        O  0.29034246  0.84649612  0.53646888    -0.89600
C615        C  0.33288781  0.67692158  0.98610122     0.84400
O616        O  0.23819575  0.79519047  0.59613543    -0.67800
O617        O  0.21047764  0.65092408  0.96852212    -0.87000
C618        C  0.25351667  0.75925809  0.60432514     0.85200
C619        C  0.32161776  0.82876175  0.52419117     1.06700
H620        H  0.24144126  0.69068636  0.53478869     0.38600
O621        O  0.24970393  0.70707441  0.50573433    -1.09700
O622        O  0.22638526  0.75780422  0.93274813    -0.66400
Ni623      Ni  0.21289994  0.74903197  0.99759783     1.26300
O624        O  0.27342003  0.73925370  0.57400809    -0.66600
O625        O  0.17594462  0.70605633  0.99592118    -0.78900
C626        C  0.16824913  0.82083907  0.51967657     0.84600
O627        O  0.17716428  0.79336967  0.99133237    -0.66100
Ni628      Ni  0.26209871  0.66539448  0.96322837     1.27400
Ni629      Ni  0.28775994  0.74776991  0.50929875     1.26100
H630        H  0.25937488  0.80602035  0.97120305     0.39100
O631        O  0.18535900  0.82359272  0.80016767    -0.80800
O632        O  0.32347347  0.70598710  0.76560094    -0.65500
O633        O  0.25077615  0.79194004  0.75127732    -1.12100
C634        C  0.17960259  0.66970630  0.73048776     1.06400
O635        O  0.31487378  0.67883195  0.70473757    -0.78700
O636        O  0.26224931  0.70336528  0.65955639    -0.66300
Ni637      Ni  0.23804179  0.83329326  0.79384712     1.34900
C638        C  0.24785884  0.73986526  0.65134721     0.84800
O639        O  0.32428062  0.79288044  0.76231685    -0.79300
O640        O  0.28971757  0.84772637  0.79013976    -0.89600
C641        C  0.33336717  0.68083406  0.73537366     0.84400
O642        O  0.23616237  0.79473612  0.84739790    -0.67800
O643        O  0.21084999  0.65123448  0.71981681    -0.87000
C644        C  0.25244176  0.75934880  0.85514855     0.85200
C645        C  0.32099161  0.83062796  0.77573796     1.06700
H646        H  0.24093933  0.69294735  0.78488474     0.38600
O647        O  0.24969924  0.70909617  0.75560738    -1.09700
O648        O  0.22871813  0.76043033  0.68169032    -0.66400
Ni649      Ni  0.21318062  0.75115035  0.74616035     1.26300
O650        O  0.27345036  0.74079334  0.82450023    -0.66600
O651        O  0.17653621  0.70850007  0.74147344    -0.78900
C652        C  0.16784336  0.82169455  0.76849223     0.84600
O653        O  0.17792589  0.79564070  0.73914533    -0.66100
Ni654      Ni  0.26236004  0.66695351  0.71389216     1.27400
Ni655      Ni  0.28755933  0.75000589  0.75968465     1.26100
H656        H  0.25947226  0.80869554  0.72227209     0.39100
C657        C  0.08423382  0.87928639  0.73330431    -0.12200
C658        C  0.07675045  0.91002017  0.76448384     0.04800
C659        C  0.09837891  0.91028143  0.79768917    -0.07500
C660        C  0.12688587  0.88037623  0.79892893    -0.08300
C661        C  0.13515316  0.85010985  0.76712767    -0.02800
C662        C  0.11311554  0.84961647  0.73410348     0.04000
N663        N  0.11992276  0.82010269  0.70047429     0.66500
H664        H  0.06791873  0.87870976  0.70749966     0.15400
H665        H  0.14342932  0.88202020  0.82434160     0.15100
N666        N  0.09379800  0.94281291  0.82821934     0.74200
O667        O  0.09614735  0.79065445  0.70087102    -0.39200
O668        O  0.14416864  0.82993788  0.66516566    -0.39200
O669        O  0.11461721  0.97631243  0.81930969    -0.39900
O670        O  0.07435178  0.93433299  0.86727067    -0.39900
C671        C  0.35632452  0.88278182  0.80870631    -0.12200
C672        C  0.35504474  0.85665335  0.77415537     0.04800
C673        C  0.38540230  0.85800970  0.73737367    -0.07500
C674        C  0.41579533  0.88578760  0.73534873    -0.08300
C675        C  0.41680863  0.91278104  0.76930976    -0.02800
C676        C  0.38679848  0.91058174  0.80673956     0.04000
N677        N  0.38569127  0.93801265  0.84178067     0.66500
H678        H  0.33316777  0.88220563  0.83711952     0.15400
H679        H  0.43836895  0.88698279  0.70623060     0.15100
N680        N  0.38458938  0.83413092  0.70000358     0.74200
O681        O  0.36984052  0.97425088  0.83934179    -0.39200
O682        O  0.39357302  0.92253950  0.87861047    -0.39200
O683        O  0.37297019  0.85232870  0.66655933    -0.39900
O684        O  0.40312729  0.79982475  0.69593914    -0.39900
C685        C  0.36877287  0.61637115  0.71069584    -0.12200
C686        C  0.36627007  0.65280898  0.73504312     0.04800
C687        C  0.39378423  0.65946759  0.76012529    -0.07500
C688        C  0.42210613  0.62913691  0.76152546    -0.08300
C689        C  0.42374991  0.59232123  0.73808883    -0.02800
C690        C  0.39684188  0.58604038  0.71238315     0.04000
N691        N  0.39542260  0.54694352  0.69152111     0.66500
H692        H  0.34768023  0.60999080  0.69190202     0.15400
H693        H  0.44297022  0.63439429  0.78102553     0.15100
N694        N  0.39399356  0.69710321  0.78348941     0.74200
O695        O  0.38177067  0.51261228  0.71521097    -0.39200
O696        O  0.40065332  0.54875208  0.64923949    -0.39200
O697        O  0.38317736  0.69364505  0.82565574    -0.39900
O698        O  0.41280946  0.73027571  0.76400053    -0.39900
C699        C  0.07984122  0.62503353  0.75690807    -0.12200
C700        C  0.08358523  0.58886426  0.73246861     0.04800
C701        C  0.11822352  0.58095374  0.70529801    -0.07500
C702        C  0.14870880  0.60840592  0.70415902    -0.08300
C703        C  0.14551224  0.64400194  0.72988714    -0.02800
C704        C  0.11022830  0.65267399  0.75574158     0.04000
N705        N  0.10501733  0.68774782  0.78313342     0.66500
H706        H  0.05326567  0.63133397  0.77794323     0.15400
H707        H  0.17530191  0.60103068  0.68385759     0.15100
N708        N  0.12359807  0.54316098  0.68165656     0.74200
O709        O  0.08876246  0.72143678  0.77051188    -0.39200
O710        O  0.10797563  0.68079526  0.82372180    -0.39200
O711        O  0.12180039  0.54588263  0.64063240    -0.39900
O712        O  0.12764857  0.50649949  0.70251696    -0.39900
C713        C  0.10822571  0.83824698  0.49533526    -0.12200
C714        C  0.13605881  0.84965611  0.51778274     0.04800
C715        C  0.13300552  0.88923004  0.53759305    -0.07500
C716        C  0.10224417  0.91548531  0.53582091    -0.08300
C717        C  0.07479377  0.90438087  0.51309481    -0.02800
C718        C  0.07784958  0.86541710  0.49253101     0.04000
N719        N  0.04982371  0.85209433  0.97015798     0.66500
H720        H  0.10993837  0.80806244  0.48001394     0.15400
H721        H  0.10079567  0.94608642  0.55042517     0.15100
N722        N  0.16226717  0.90523328  0.55636840     0.74200
O723        O  0.05656341  0.85465909  0.92777614    -0.39200
O724        O  0.02300160  0.82846304  0.49234715    -0.39200
O725        O  0.18854662  0.92692570  0.03109652    -0.39900
O726        O  0.15726534  0.90671621  0.59827672    -0.39900
C727        C  0.42055802  0.87558258  0.49651003    -0.12200
C728        C  0.41543833  0.91364170  0.51800851     0.04800
C729        C  0.38014524  0.92242590  0.04353959    -0.07500
C730        C  0.35058866  0.89343154  0.04625771    -0.08300
C731        C  0.35524493  0.85545803  0.52372528    -0.02800
C732        C  0.39099636  0.84619847  0.49955233     0.04000
N733        N  0.39774492  0.80785399  0.47706746     0.66500
H734        H  0.44770199  0.86864239  0.47720405     0.15400
H735        H  0.32364392  0.90135091  0.06532398     0.15100
N736        N  0.37337124  0.96191341  0.06411759     0.74200
O737        O  0.39814251  0.81000424  0.43548134    -0.39200
O738        O  0.41076395  0.77485425  0.49625384    -0.39200
O739        O  0.36222221  0.99475679  0.04255841    -0.39900
O740        O  0.37103138  0.96122293  0.10597797    -0.39900
C741        C  0.38867221  0.65411266  0.51750821    -0.12200
C742        C  0.36592453  0.64884857  0.98673564     0.04800
C743        C  0.37443826  0.61555464  0.95789429    -0.07500
C744        C  0.40508022  0.58918506  0.96024813    -0.08300
C745        C  0.42740587  0.59394489  0.99156579    -0.02800
C746        C  0.41909783  0.62699435  0.52024255     0.04000
N747        N  0.44219374  0.63467567  0.55118064     0.66500
H748        H  0.38301717  0.67944082  0.53977377     0.15400
H749        H  0.41024286  0.56312846  0.93878553     0.15100
N750        N  0.35116848  0.60600453  0.92775322     0.74200
O751        O  0.47189262  0.65672414  0.53717539    -0.39200
O752        O  0.42909644  0.62848064  0.59289920    -0.39200
O753        O  0.36332285  0.61313110  0.88588888    -0.39900
O754        O  0.32300073  0.58143696  0.94231153    -0.39900
C755        C  0.08622630  0.60933077  0.52338214    -0.12200
C756        C  0.08551884  0.58404215  0.98781169     0.04800
C757        C  0.11477699  0.58898553  0.94956219    -0.07500
C758        C  0.14447271  0.61757501  0.94825321    -0.08300
C759        C  0.14560363  0.64196695  0.98413720    -0.02800
C760        C  0.11572516  0.63826978  0.52183379     0.04000
N761        N  0.11620906  0.66123308  0.55992307     0.66500
H762        H  0.06406044  0.60618920  0.55300671     0.15400
H763        H  0.16717413  0.62021597  0.91918752     0.15100
N764        N  0.11577597  0.56396631  0.91261731     0.74200
O765        O  0.09834673  0.69602966  0.56399226    -0.39200
O766        O  0.12786965  0.64250343  0.09304897    -0.39200
O767        O  0.10773851  0.58233942  0.37652209    -0.39900
O768        O  0.13171251  0.52770915  0.91265432    -0.39900
O769        O  0.53567676  0.03973417  0.03242643    -0.74400
O770        O  0.95437616  0.45952161  0.04643096    -0.74400
O771        O  0.52860717  0.45228941  0.04510015    -0.74500
O772        O  0.96223605  0.04734137  0.03407290    -0.74500
O773        O  0.97226695  0.04405730  0.46011595    -0.74400
O774        O  0.53919610  0.44949807  0.47079034    -0.74400
O775        O  0.96591150  0.45619816  0.47216458    -0.74400
O776        O  0.54638678  0.03753397  0.45812782    -0.74500
Ni777      Ni  0.99475989  0.49978715  0.04183691     1.25400
Ni778      Ni  0.50622838  0.99668383  0.46296087     1.25400
C779        C  0.55441888  0.05202594  0.49284627     0.87800
C780        C  0.94686520  0.44463330  0.51161227     0.87700
C781        C  0.54528581  0.43582016  0.00980742     0.87800
C782        C  0.95606612  0.06096620  0.99519852     0.87900
O783        O  0.95561044  0.46041051  0.29743130    -0.74400
O784        O  0.53365882  0.04710066  0.27743167    -0.74400
O785        O  0.95949000  0.04805526  0.28138547    -0.74500
O786        O  0.53085437  0.45952188  0.29329439    -0.74500
O787        O  0.54081113  0.45432497  0.21961383    -0.74400
O788        O  0.96956317  0.04279741  0.20759898    -0.74400
O789        O  0.54417416  0.04184908  0.20364575    -0.74400
O790        O  0.96643587  0.45540179  0.22371445    -0.74500
Ni791      Ni  0.99425124  0.50372838  0.29065966     1.25400
Ni792      Ni  0.50554472  0.99857734  0.21080875     1.25400
C793        C  0.94778433  0.44412435  0.26352213     0.87800
C794        C  0.55206440  0.05813680  0.23750513     0.87700
C795        C  0.95246265  0.05952164  0.24247806     0.87800
C796        C  0.54804099  0.44278818  0.25845962     0.87900
O797        O  0.68611247  0.32219184  0.05062963    -0.80800
O798        O  0.82358882  0.20332509  0.01477161    -0.65500
O799        O  0.75089410  0.28996146  0.49991361    -1.12100
C800        C  0.67925997  0.16789429  0.48277977     1.06000
O801        O  0.81474359  0.17556916  0.45428129    -0.78700
O802        O  0.76264697  0.20322711  0.40915155    -0.66300
Ni803      Ni  0.73876297  0.33219982  0.04162072     1.34900
C804        C  0.74652620  0.23872171  0.40149493     0.84800
O805        O  0.82486596  0.29070336  0.01151388    -0.79300
O806        O  0.79018116  0.34676530  0.03554119    -0.89600
C807        C  0.83284428  0.17710251  0.48531940     0.84400
O808        O  0.73851509  0.29507261  0.09556193    -0.67800
O809        O  0.71044771  0.15070275  0.46841492    -0.87000
C810        C  0.75383988  0.25912645  0.10366648     0.85200
C811        C  0.82152227  0.32916933  0.02325061     1.06700
H812        H  0.74187537  0.19048641  0.03415732     0.38600
O813        O  0.75002370  0.20692645  0.00510814    -1.09700
O814        O  0.72606321  0.25763405  0.43227707    -0.66400
Ni815      Ni  0.71280510  0.24895712  0.49715839     1.26300
O816        O  0.77369686  0.23916379  0.07330062    -0.66600
O817        O  0.67588363  0.20584654  0.49573149    -0.78900
C818        C  0.66804349  0.32009738  0.01967851     0.84600
O819        O  0.67690878  0.29317135  0.49112454    -0.66100
Ni820      Ni  0.76205627  0.16535842  0.46278249     1.27400
Ni821      Ni  0.78793108  0.24785290  0.00861644     1.26100
H822        H  0.75917307  0.30601844  0.47040315     0.39100
O823        O  0.68519436  0.32328113  0.29918285    -0.80800
O824        O  0.82321803  0.20549736  0.26543794    -0.65500
O825        O  0.75074156  0.29158256  0.25064122    -1.12100
C826        C  0.67963018  0.16958474  0.22938772     1.06400
O827        O  0.81486551  0.17839114  0.20444576    -0.78700
O828        O  0.76252958  0.20314188  0.15886487    -0.66300
Ni829      Ni  0.73786049  0.33292884  0.29316338     1.34900
C830        C  0.74815218  0.23964875  0.15064285     0.84800
O831        O  0.82413641  0.29238163  0.26209928    -0.79300
O832        O  0.78951736  0.34727686  0.28970107    -0.89600
C833        C  0.83321997  0.18036204  0.23522441     0.84400
O834        O  0.73577456  0.29440405  0.34679322    -0.67800
O835        O  0.71085222  0.15104110  0.21878773    -0.87000
C836        C  0.75203648  0.25902603  0.35464155     0.85200
C837        C  0.82082021  0.33014446  0.27547994     1.06700
H838        H  0.74070687  0.19258483  0.28423873     0.38600
O839        O  0.74957370  0.20874070  0.25499435    -1.09700
O840        O  0.72891280  0.26015232  0.18094399    -0.66400
Ni841      Ni  0.71317216  0.25087915  0.24533788     1.26300
O842        O  0.77308548  0.24042538  0.32406545    -0.66600
O843        O  0.67657465  0.20833473  0.24045867    -0.78900
C844        C  0.66783516  0.32145951  0.26734930     0.84600
O845        O  0.67802015  0.29542013  0.23802630    -0.66100
Ni846      Ni  0.76235414  0.16664086  0.21323337     1.27400
Ni847      Ni  0.78741478  0.24958033  0.25927699     1.26100
H848        H  0.75955664  0.30833224  0.22165309     0.39100
C849        C  0.58455240  0.37934908  0.23157420    -0.12200
C850        C  0.57706330  0.41014426  0.26269810     0.04800
C851        C  0.59860836  0.41035661  0.29599850    -0.07500
C852        C  0.62700171  0.38034641  0.29742474    -0.08300
C853        C  0.63523658  0.34997189  0.26575228    -0.02800
C854        C  0.61329106  0.34950198  0.23262715     0.04000
N855        N  0.61993496  0.31967471  0.19930127     0.66500
H856        H  0.56827108  0.37874669  0.20573940     0.15400
H857        H  0.64348048  0.38198240  0.32290440     0.15100
N858        N  0.59398405  0.44284868  0.32656735     0.74200
O859        O  0.59653971  0.28951979  0.20078011    -0.39200
O860        O  0.64339783  0.32971021  0.16333597    -0.39200
O861        O  0.61411321  0.47690514  0.31709954    -0.39900
O862        O  0.57555438  0.43381989  0.36608375    -0.39900
C863        C  0.85560636  0.38301792  0.30821502    -0.12200
C864        C  0.85485607  0.35615541  0.27412677     0.04800
C865        C  0.88572470  0.35680159  0.23800746    -0.07500
C866        C  0.91605219  0.38466261  0.23613566    -0.08300
C867        C  0.91649816  0.41237941  0.26960848    -0.02800
C868        C  0.88599473  0.41088102  0.30639301     0.04000
N869        N  0.88428908  0.43915943  0.34080731     0.66500
H870        H  0.83208484  0.38300381  0.33612465     0.15400
H871        H  0.93904152  0.38533885  0.20752709     0.15100
N872        N  0.88555924  0.33207515  0.20108991     0.74200
O873        O  0.86861023  0.47540250  0.33707506    -0.39200
O874        O  0.89142797  0.42448811  0.37827498    -0.39200
O875        O  0.87424645  0.34943782  0.16707998    -0.39900
O876        O  0.90442719  0.29794226  0.19796459    -0.39900
C877        C  0.86883855  0.11609498  0.21041702    -0.12200
C878        C  0.86610933  0.15234407  0.23504909     0.04800
C879        C  0.89343842  0.15886952  0.26043586    -0.07500
C880        C  0.92174041  0.12853039  0.26192541    -0.08300
C881        C  0.92358986  0.09188232  0.23821981    -0.02800
C882        C  0.89693955  0.08581677  0.21210181     0.04000
N883        N  0.89587604  0.04703700  0.19062988     0.66500
H884        H  0.84793766  0.10985275  0.19130369     0.15400
H885        H  0.94244409  0.13366884  0.28168292     0.15100
N886        N  0.89356778  0.19644880  0.28390000     0.74200
O887        O  0.88186868  0.01254665  0.21368154    -0.39200
O888        O  0.90178474  0.04935085  0.14827931    -0.39200
O889        O  0.88205241  0.19304741  0.32595616    -0.39900
O890        O  0.91314764  0.22923054  0.26491647    -0.39900
C891        C  0.57994945  0.12496185  0.25608942    -0.12200
C892        C  0.58351104  0.08917586  0.23111936     0.04800
C893        C  0.61798363  0.08159383  0.20339425    -0.07500
C894        C  0.64853116  0.10892056  0.20233854    -0.08300
C895        C  0.64551677  0.14406340  0.22864728    -0.02800
C896        C  0.61037916  0.15247208  0.25499209     0.04000
N897        N  0.60541300  0.18703349  0.28304459     0.66500
H898        H  0.55350292  0.13101034  0.27754160     0.15400
H899        H  0.67502788  0.10180552  0.18165084     0.15100
N900        N  0.62315414  0.04422743  0.17908328     0.74200
O901        O  0.58936455  0.22110328  0.27100194    -0.39200
O902        O  0.60838672  0.17931096  0.32356906    -0.39200
O903        O  0.62074705  0.04753749  0.13823132    -0.39900
O904        O  0.62748161  0.00731435  0.19926343    -0.39900
C905        C  0.60752982  0.33727861  0.99637624    -0.12200
C906        C  0.63578375  0.34888782  0.01808946     0.04800
C907        C  0.63309059  0.38866311  0.03752156    -0.07500
C908        C  0.60232804  0.41498847  0.03601991    -0.08300
C909        C  0.57450339  0.40374405  0.01392439    -0.02800
C910        C  0.57713743  0.36451850  0.99383687     0.04000
N911        N  0.54876867  0.35130846  0.47197509     0.66500
H912        H  0.60895293  0.30692070  0.98139358     0.15400
H913        H  0.60117930  0.44575897  0.05027321     0.15100
N914        N  0.66273715  0.40480650  0.05553834     0.74200
O915        O  0.55456456  0.35490367  0.42958567    -0.39200
O916        O  0.52240819  0.32681603  0.99470631    -0.39200
O917        O  0.68886488  0.42636155  0.52993287    -0.39900
O918        O  0.65829409  0.40658106  0.09735608    -0.39900
C919        C  0.92063988  0.37566910  0.99616370    -0.12200
C920        C  0.91539914  0.41417169  0.01687426     0.04800
C921        C  0.88015598  0.42342837  0.54097579    -0.07500
C922        C  0.85049159  0.39464368  0.54355811    -0.08300
C923        C  0.85510231  0.35610405  0.02252214    -0.02800
C924        C  0.89101783  0.34637210  0.99913746     0.04000
N925        N  0.89789278  0.30762187  0.97736361     0.66500
H926        H  0.94792320  0.36832151  0.97751535     0.15400
H927        H  0.82338254  0.40327927  0.56160159     0.15100
N928        N  0.87334427  0.46348105  0.56047886     0.74200
O929        O  0.89811767  0.30900595  0.93586795    -0.39200
O930        O  0.91115433  0.27507266  0.99699071    -0.39200
O931        O  0.86245633  0.49588720  0.53802099    -0.39900
O932        O  0.87074174  0.46376730  0.60227862    -0.39900
C933        C  0.88920758  0.15467609  0.01646109    -0.12200
C934        C  0.86574061  0.14886970  0.48607946     0.04800
C935        C  0.87425705  0.11561565  0.45719612    -0.07500
C936        C  0.90485528  0.08919916  0.45960152    -0.08300
C937        C  0.92704435  0.09379656  0.49109844    -0.02800
C938        C  0.91962598  0.12755421  0.01920696     0.04000
N939        N  0.94301545  0.13556793  0.04972037     0.66500
H940        H  0.88380429  0.18033350  0.03835456     0.15400
H941        H  0.91006330  0.06320321  0.43806665     0.15100
N942        N  0.85099880  0.10609980  0.42702577     0.74200
O943        O  0.97281252  0.15731002  0.03516391    -0.39200
O944        O  0.93017830  0.12988931  0.09152231    -0.39200
O945        O  0.86341200  0.11250043  0.38516756    -0.39900
O946        O  0.82250296  0.08208907  0.44172968    -0.39900
C947        C  0.58651643  0.10899380  0.02334362    -0.12200
C948        C  0.58556557  0.08355615  0.48805198     0.04800
C949        C  0.61504007  0.08799188  0.45004140    -0.07500
C950        C  0.64470696  0.11664878  0.44862219    -0.08300
C951        C  0.64558711  0.14162274  0.48414486    -0.02800
C952        C  0.61607160  0.13790240  0.02158046     0.04000
N953        N  0.61636519  0.16155286  0.05923937     0.66500
H954        H  0.56419569  0.10633889  0.05280361     0.15400
H955        H  0.66757108  0.11890397  0.41974765     0.15100
N956        N  0.61626592  0.06242125  0.41347154     0.74200
O957        O  0.59854488  0.19644425  0.06254894    -0.39200
O958        O  0.62567687  0.14342215  0.59353516    -0.39200
O959        O  0.60885293  0.08004598  0.87703892    -0.39900
O960        O  0.63202483  0.02606076  0.41427824    -0.39900
O961        O  0.53563226  0.03974518  0.53230557    -0.74400
O962        O  0.95447825  0.45935704  0.54639342    -0.74400
O963        O  0.52853057  0.45234608  0.54501268    -0.74500
O964        O  0.96192143  0.04709861  0.53422980    -0.74500
O965        O  0.97260830  0.04424460  0.95996353    -0.74400
O966        O  0.53926921  0.44946250  0.97087654    -0.74400
O967        O  0.96580719  0.45635065  0.97220717    -0.74400
O968        O  0.54642384  0.03749750  0.95825523    -0.74500
Ni969      Ni  0.99478293  0.49970957  0.54180558     1.25400
Ni970      Ni  0.50618572  0.99676137  0.96309450     1.25400
C971        C  0.55449726  0.05195590  0.99296653     0.87800
C972        C  0.94673878  0.44481470  0.01165042     0.87700
C973        C  0.54522445  0.43588955  0.50972448     0.87800
C974        C  0.95571582  0.06073311  0.49537603     0.87900
O975        O  0.95574532  0.46055803  0.79746394    -0.74400
O976        O  0.53389039  0.04735219  0.77691717    -0.74400
O977        O  0.95954713  0.04830047  0.78177945    -0.74500
O978        O  0.53090603  0.45982576  0.79397001    -0.74500
O979        O  0.54091340  0.45457882  0.72029545    -0.74400
O980        O  0.96966020  0.04303211  0.70799205    -0.74400
O981        O  0.54442582  0.04182714  0.70317684    -0.74400
O982        O  0.96654002  0.45549756  0.72376219    -0.74500
Ni983      Ni  0.99443553  0.50385093  0.79061923     1.25400
Ni984      Ni  0.50574375  0.99859893  0.71050676     1.25400
C985        C  0.94788450  0.44426080  0.76357467     0.87800
C986        C  0.55229417  0.05826416  0.73696217     0.87700
C987        C  0.95250885  0.05972130  0.74286860     0.87800
C988        C  0.54809309  0.44304444  0.75916864     0.87900
O989        O  0.68615279  0.32247145  0.55053599    -0.80800
O990        O  0.82343804  0.20334721  0.51473876    -0.65500
O991        O  0.75092895  0.28983629  0.00002708    -1.12100
C992        C  0.67951179  0.16766307  0.98267167     1.06000
O993        O  0.81498070  0.17565276  0.95421964    -0.78700
O994        O  0.76284082  0.20324120  0.90908139    -0.66300
Ni995      Ni  0.73881771  0.33240253  0.54143568     1.34900
C996        C  0.74668258  0.23872392  0.90147989     0.84800
O997        O  0.82485906  0.29072445  0.51133761    -0.79300
O998        O  0.79025492  0.34686804  0.53528815    -0.89600
C999        C  0.83305001  0.17714546  0.98529780     0.84400
O1000       O  0.73857927  0.29537878  0.59543752    -0.67800
O1001       O  0.71072249  0.15053425  0.96827635    -0.87000
C1002       C  0.75388242  0.25942758  0.60357373     0.85200
C1003       C  0.82157101  0.32919565  0.52306385     1.06700
H1004       H  0.74172285  0.19066155  0.53421945     0.38600
O1005       O  0.74986957  0.20704804  0.50514373    -1.09700
O1006       O  0.72620259  0.25757344  0.93229464    -0.66400
Ni1007     Ni  0.71290875  0.24878577  0.99716002     1.26300
O1008       O  0.77366315  0.23938112  0.57322032    -0.66600
O1009       O  0.67607640  0.20561446  0.99562461    -0.78900
C1010       C  0.66803293  0.32032481  0.51964272     0.84600
O1011       O  0.67694852  0.29295455  0.99115132    -0.66100
Ni1012     Ni  0.76230760  0.16531818  0.96267116     1.27400
Ni1013     Ni  0.78784748  0.24793093  0.50853452     1.26100
H1014       H  0.75921098  0.30594510  0.97053703     0.39100
O1015       O  0.68523779  0.32326055  0.79941302    -0.80800
O1016       O  0.82325886  0.20570316  0.76537294    -0.65500
O1017       O  0.75077610  0.29178833  0.75068853    -1.12100
C1018       C  0.67970255  0.16989203  0.72904392     1.06400
O1019       O  0.81495874  0.17852990  0.70438932    -0.78700
O1020       O  0.76267453  0.20352369  0.65876182    -0.66300
Ni1021     Ni  0.73788536  0.33306130  0.79329696     1.34900
C1022       C  0.74823972  0.24000064  0.65056021     0.84800
O1023       O  0.82415476  0.29259949  0.76218375    -0.79300
O1024       O  0.78953078  0.34752008  0.78974489    -0.89600
C1025       C  0.83326335  0.18051161  0.73521424     0.84400
O1026       O  0.73593376  0.29451787  0.84688810    -0.67800
O1027       O  0.71094204  0.15138366  0.71847265    -0.87000
C1028       C  0.75215537  0.25909316  0.85465510     0.85200
C1029       C  0.82083142  0.33037668  0.77554532     1.06700
H1030       H  0.74076125  0.19275795  0.78409131     0.38600
O1031       O  0.74963507  0.20895529  0.75486562    -1.09700
O1032       O  0.72896833  0.26047703  0.68087315    -0.66400
Ni1033     Ni  0.71321641  0.25110625  0.74527971     1.26300
O1034       O  0.77312556  0.24049442  0.82401996    -0.66600
O1035       O  0.67662175  0.20859535  0.74025161    -0.78900
C1036       C  0.66787428  0.32160871  0.76756242     0.84600
O1037       O  0.67804698  0.29567134  0.73812824    -0.66100
Ni1038     Ni  0.76243521  0.16690389  0.71305884     1.27400
Ni1039     Ni  0.78745854  0.24978751  0.75924890     1.26100
H1040       H  0.75958792  0.30858144  0.72173221     0.39100
C1041       C  0.58448352  0.37961608  0.73220280    -0.12200
C1042       C  0.57703841  0.41030989  0.76342854     0.04800
C1043       C  0.59860586  0.41037910  0.79671978    -0.07500
C1044       C  0.62703249  0.38037119  0.79796179    -0.08300
C1045       C  0.63528311  0.35016826  0.76609831    -0.02800
C1046       C  0.61328335  0.34982731  0.73301052     0.04000
N1047       N  0.61998395  0.32029840  0.69938599     0.66500
H1048       H  0.56818316  0.37913773  0.70637224     0.15400
H1049       H  0.64352737  0.38187964  0.82344450     0.15100
N1050       N  0.59397705  0.44272155  0.82745651     0.74200
O1051       O  0.59577251  0.29150600  0.69927288    -0.39200
O1052       O  0.64465733  0.32973891  0.66439888    -0.39200
O1053       O  0.61417993  0.47672386  0.81820417    -0.39900
O1054       O  0.57550256  0.43355016  0.86692848    -0.39900
C1055       C  0.85578353  0.38295862  0.80846091    -0.12200
C1056       C  0.85486593  0.35639164  0.77416927     0.04800
C1057       C  0.88556508  0.35732791  0.73782407    -0.07500
C1058       C  0.91591703  0.38514527  0.73595285    -0.08300
C1059       C  0.91655946  0.41254938  0.76965552    -0.02800
C1060       C  0.88620645  0.41078011  0.80664910     0.04000
N1061       N  0.88469711  0.43871171  0.84133389     0.66500
H1062       H  0.83237584  0.38272540  0.83653676     0.15400
H1063       H  0.93877132  0.38602555  0.70717195     0.15100
N1064       N  0.88518481  0.33293955  0.70071125     0.74200
O1065       O  0.86900396  0.47498844  0.83806719    -0.39200
O1066       O  0.89204622  0.42369592  0.87859061    -0.39200
O1067       O  0.87387463  0.35066704  0.66684700    -0.39900
O1068       O  0.90379793  0.29863247  0.69733694    -0.39900
C1069       C  0.86884728  0.11611273  0.71066532    -0.12200
C1070       C  0.86611730  0.15245222  0.73517255     0.04800
C1071       C  0.89336617  0.15899067  0.76066802    -0.07500
C1072       C  0.92168205  0.12868767  0.76223308    -0.08300
C1073       C  0.92357089  0.09199354  0.73859683    -0.02800
C1074       C  0.89689937  0.08579043  0.71254158     0.04000
N1075       N  0.89569879  0.04678520  0.69146575     0.66500
H1076       H  0.84794829  0.10980675  0.69157139     0.15400
H1077       H  0.94234819  0.13387128  0.78202855     0.15100
N1078       N  0.89330818  0.19646576  0.78432645     0.74200
O1079       O  0.88198601  0.01236937  0.71493647    -0.39200
O1080       O  0.90117484  0.04875843  0.64915788    -0.39200
O1081       O  0.88195653  0.19280992  0.82641757    -0.39900
O1082       O  0.91244338  0.22958359  0.76535309    -0.39900
C1083       C  0.57987780  0.12564951  0.75468504    -0.12200
C1084       C  0.58370464  0.08935094  0.73045775     0.04800
C1085       C  0.61837338  0.08134360  0.70341929    -0.07500
C1086       C  0.64887492  0.10872165  0.70241777    -0.08300
C1087       C  0.64562254  0.14434576  0.72811567    -0.02800
C1088       C  0.61025864  0.15322344  0.75363903     0.04000
N1089       N  0.60494790  0.18839465  0.78089890     0.66500
H1090       H  0.55325206  0.13204263  0.77556022     0.15400
H1091       H  0.67551505  0.10125104  0.68228855     0.15100
N1092       N  0.62374849  0.04353532  0.67980085     0.74200
O1093       O  0.58827525  0.22178735  0.76838457    -0.39200
O1094       O  0.60820646  0.18168070  0.82139635    -0.39200
O1095       O  0.62180489  0.04620500  0.63882284    -0.39900
O1096       O  0.62786185  0.00689566  0.70066555    -0.39900
C1097       C  0.60756375  0.33746624  0.49626351    -0.12200
C1098       C  0.63574093  0.34905840  0.51810232     0.04800
C1099       C  0.63293688  0.38875569  0.53768513    -0.07500
C1100       C  0.60216521  0.41504730  0.53614138    -0.08300
C1101       C  0.57444682  0.40384570  0.51386833    -0.02800
C1102       C  0.57716514  0.36467365  0.49368960     0.04000
N1103       N  0.54865962  0.35113046  0.97225991     0.66500
H1104       H  0.60905850  0.30715388  0.48119098     0.15400
H1105       H  0.60093268  0.44576716  0.55050055     0.15100
N1106       N  0.66246891  0.40485582  0.55593179     0.74200
O1107       O  0.55438386  0.35457814  0.92987763    -0.39200
O1108       O  0.52253986  0.32687915  0.49428240    -0.39200
O1109       O  0.68896471  0.42647311  0.02941059    -0.39900
O1110       O  0.65777947  0.40678096  0.59774858    -0.39900
C1111       C  0.92082213  0.37529589  0.49651234    -0.12200
C1112       C  0.91552944  0.41400533  0.51684653     0.04800
C1113       C  0.88008162  0.42336613  0.04133821    -0.07500
C1114       C  0.85045477  0.39448776  0.04401297    -0.08300
C1115       C  0.85517849  0.35605390  0.52241973    -0.02800
C1116       C  0.89117898  0.34601252  0.49952998     0.04000
N1117       N  0.89816356  0.30685255  0.47849818     0.66500
H1118       H  0.94817195  0.36773805  0.47820759     0.15400
H1119       H  0.82338878  0.40291448  0.06235364     0.15100
N1120       N  0.87324602  0.46334158  0.06098580     0.74200
O1121       O  0.89920429  0.30767402  0.43686784    -0.39200
O1122       O  0.91075731  0.27440768  0.49908460    -0.39200
O1123       O  0.86237159  0.49581290  0.03860614    -0.39900
O1124       O  0.87058661  0.46349107  0.10280975    -0.39900
C1125       C  0.88871275  0.15427294  0.51687584    -0.12200
C1126       C  0.86597771  0.14895166  0.98602587     0.04800
C1127       C  0.87429078  0.11544404  0.95742270    -0.07500
C1128       C  0.90493748  0.08908527  0.95974613    -0.08300
C1129       C  0.92738667  0.09400819  0.99088854    -0.02800
C1130       C  0.91906613  0.12708136  0.51971327     0.04000
N1131       N  0.94213928  0.13473638  0.55068638     0.66500
H1132       H  0.88314063  0.17971283  0.53901608     0.15400
H1133       H  0.90998328  0.06287967  0.93846037     0.15100
N1134       N  0.85076743  0.10561220  0.92766406     0.74200
O1135       O  0.97199399  0.15648506  0.53665812    -0.39200
O1136       O  0.92893915  0.12880840  0.59239457    -0.39200
O1137       O  0.86290357  0.11166199  0.88573212    -0.39900
O1138       O  0.82225361  0.08174523  0.94285681    -0.39900
C1139       C  0.58619446  0.10929290  0.52318538    -0.12200
C1140       C  0.58573357  0.08337716  0.98815355     0.04800
C1141       C  0.61513412  0.08784585  0.95005140    -0.07500
C1142       C  0.64486170  0.11643639  0.94858203    -0.08300
C1143       C  0.64586482  0.14131805  0.98413803    -0.02800
C1144       C  0.61569048  0.13827403  0.52147478     0.04000
N1145       N  0.61580684  0.16205882  0.55908166     0.66500
H1146       H  0.56379374  0.10667843  0.55256025     0.15400
H1147       H  0.66765424  0.11874520  0.91962559     0.15100
N1148       N  0.61619840  0.06241920  0.91340102     0.74200
O1149       O  0.59840026  0.19727331  0.56181327    -0.39200
O1150       O  0.62705581  0.14306813  0.09321083    -0.39200
O1151       O  0.60903888  0.07990284  0.37699131    -0.39900
O1152       O  0.63193227  0.02603988  0.91399434    -0.39900
O1153       O  0.53590392  0.53978456  0.03242992    -0.74400
O1154       O  0.95453631  0.95965327  0.04640388    -0.74400
O1155       O  0.52841878  0.95224443  0.04506714    -0.74500
O1156       O  0.96199669  0.54723158  0.03416697    -0.74500
O1157       O  0.97228770  0.54404908  0.46003165    -0.74400
O1158       O  0.53920101  0.94947091  0.47066525    -0.74400
O1159       O  0.96592243  0.95620382  0.47228299    -0.74400
O1160       O  0.54640630  0.53756394  0.45812069    -0.74500
Ni1161     Ni  0.99495243  0.99986871  0.04182951     1.25400
Ni1162     Ni  0.50623941  0.49671416  0.46300746     1.25400
C1163       C  0.55444683  0.55209345  0.49281500     0.87800
C1164       C  0.94688091  0.94464066  0.51173215     0.87700
C1165       C  0.54511073  0.93581290  0.00975750     0.87800
C1166       C  0.95580666  0.56089387  0.99531179     0.87900
O1167       O  0.95571963  0.96038690  0.29735507    -0.74400
O1168       O  0.53379440  0.54712913  0.27714248    -0.74400
O1169       O  0.95934777  0.54807413  0.28145619    -0.74500
O1170       O  0.53069105  0.95951913  0.29354601    -0.74500
O1171       O  0.54069425  0.95435760  0.21985340    -0.74400
O1172       O  0.96945870  0.54280613  0.20766896    -0.74400
O1173       O  0.54424384  0.54184856  0.20336534    -0.74400
O1174       O  0.96650285  0.95538468  0.22363928    -0.74500
Ni1175     Ni  0.99438076  0.00369192  0.29055105     1.25400
Ni1176     Ni  0.50563051  0.49853885  0.21060306     1.25400
C1177       C  0.94787089  0.94410270  0.26345553     0.87800
C1178       C  0.55213807  0.55819601  0.23719068     0.87700
C1179       C  0.95233080  0.55952070  0.24253812     0.87800
C1180       C  0.54790514  0.94281721  0.25870575     0.87900
O1181       O  0.68614587  0.82249862  0.05044660    -0.80800
O1182       O  0.82364528  0.70369770  0.01470478    -0.65500
O1183       O  0.75096359  0.78996107  0.49981438    -1.12100
C1184       C  0.67937894  0.66786260  0.48264663     1.06000
O1185       O  0.81484969  0.67565879  0.45415253    -0.78700
O1186       O  0.76272998  0.70324233  0.40900379    -0.66300
Ni1187     Ni  0.73879222  0.83255849  0.04144292     1.34900
C1188       C  0.74659547  0.73873204  0.40136553     0.84800
O1189       O  0.82489447  0.79107515  0.01141482    -0.79300
O1190       O  0.79020951  0.84716889  0.03535680    -0.89600
C1191       C  0.83292857  0.67714649  0.48521964     0.84400
O1192       O  0.73855332  0.79546932  0.09541442    -0.67800
O1193       O  0.71056723  0.65067499  0.46827117    -0.87000
C1194       C  0.75386102  0.75951301  0.10352726     0.85200
C1195       C  0.82155096  0.82955598  0.02310524     1.06700
H1196       H  0.74193838  0.69084406  0.03401871     0.38600
O1197       O  0.75010036  0.70727578  0.00496625    -1.09700
O1198       O  0.72614938  0.75763643  0.43216277    -0.66400
Ni1199     Ni  0.71289045  0.74894420  0.49703497     1.26300
O1200       O  0.77371563  0.73954260  0.07316917    -0.66600
O1201       O  0.67599313  0.70581767  0.49559122    -0.78900
C1202       C  0.66807435  0.82037701  0.01949976     0.84600
O1203       O  0.67698987  0.79314364  0.49097794    -0.66100
Ni1204     Ni  0.76217088  0.66538081  0.46263821     1.27400
Ni1205     Ni  0.78798619  0.74821626  0.00849684     1.26100
H1206       H  0.75924942  0.80602020  0.47031003     0.39100
O1207       O  0.68525295  0.82352627  0.29914784    -0.80800
O1208       O  0.82314349  0.70553811  0.26526005    -0.65500
O1209       O  0.75075529  0.79174427  0.25055177    -1.12100
C1210       C  0.67950741  0.66995656  0.22906712     1.06400
O1211       O  0.81477779  0.67838669  0.20429061    -0.78700
O1212       O  0.76253734  0.70349428  0.15868050    -0.66300
Ni1213     Ni  0.73793295  0.83305101  0.29313470     1.34900
C1214       C  0.74814717  0.74000112  0.15049348     0.84800
O1215       O  0.82416350  0.79241356  0.26197810    -0.79300
O1216       O  0.78960299  0.84729990  0.28969443    -0.89600
C1217       C  0.83312151  0.68036722  0.23507780     0.84400
O1218       O  0.73581648  0.79445089  0.34671863    -0.67800
O1219       O  0.71072218  0.65141695  0.21841225    -0.87000
C1220       C  0.75207112  0.75905705  0.35452322     0.85200
C1221       C  0.82088636  0.83014968  0.27542803     1.06700
H1222       H  0.74063687  0.69272505  0.28403841     0.38600
O1223       O  0.74950798  0.70890243  0.25481350    -1.09700
O1224       O  0.72886740  0.76045311  0.18081243    -0.66400
Ni1225     Ni  0.71313925  0.75111408  0.24521362     1.26300
O1226       O  0.77308894  0.74046728  0.32391498    -0.66600
O1227       O  0.67647332  0.70865312  0.24028972    -0.78900
C1228       C  0.66787665  0.82173104  0.26732605     0.84600
O1229       O  0.67803796  0.79571492  0.23797632    -0.66100
Ni1230     Ni  0.76223941  0.66685054  0.21298368     1.27400
Ni1231     Ni  0.78739178  0.74967648  0.25912855     1.26100
H1232       H  0.75957657  0.80851470  0.22158231     0.39100
C1233       C  0.58441773  0.87941797  0.23181271    -0.12200
C1234       C  0.57695371  0.91022099  0.26292269     0.04800
C1235       C  0.59859481  0.91054615  0.29610981    -0.07500
C1236       C  0.62704827  0.88060277  0.29745699    -0.08300
C1237       C  0.63526157  0.85022151  0.26578470    -0.02800
C1238       C  0.61324127  0.84967849  0.23274235     0.04000
N1239       N  0.61992208  0.81993424  0.19933265     0.66500
H1240       H  0.56807833  0.87876598  0.20604150     0.15400
H1241       H  0.64359497  0.88230491  0.32285750     0.15100
N1242       N  0.59402576  0.94311439  0.32659452     0.74200
O1243       O  0.59628970  0.79015998  0.20033716    -0.39200
O1244       O  0.64376064  0.82980399  0.16366040    -0.39200
O1245       O  0.61407415  0.97722975  0.31694267    -0.39900
O1246       O  0.57571648  0.93414540  0.36617888    -0.39900
C1247       C  0.85573608  0.88291122  0.30822832    -0.12200
C1248       C  0.85494199  0.85611987  0.27409028     0.04800
C1249       C  0.88577166  0.85683056  0.23791844    -0.07500
C1250       C  0.91610368  0.88468541  0.23604313    -0.08300
C1251       C  0.91658794  0.91234629  0.26955732    -0.02800
C1252       C  0.88612445  0.91078017  0.30639587     0.04000
N1253       N  0.88444860  0.93901000  0.34084821     0.66500
H1254       H  0.83224157  0.88284997  0.33617719     0.15400
H1255       H  0.93905972  0.88541230  0.20739158     0.15100
N1256       N  0.88554963  0.83219527  0.20094744     0.74200
O1257       O  0.86874948  0.97524766  0.33719287    -0.39200
O1258       O  0.89163450  0.92429571  0.37827911    -0.39200
O1259       O  0.87409389  0.84959842  0.16705460    -0.39900
O1260       O  0.90447053  0.79811246  0.19765364    -0.39900
C1261       C  0.86867955  0.61599867  0.21043397    -0.12200
C1262       C  0.86598772  0.65232232  0.23495630     0.04800
C1263       C  0.89332887  0.65890123  0.26031015    -0.07500
C1264       C  0.92162888  0.62857024  0.26184376    -0.08300
C1265       C  0.92344627  0.59185486  0.23824650    -0.02800
C1266       C  0.89676244  0.58570573  0.21219516     0.04000
N1267       N  0.89563550  0.54682562  0.19090219     0.66500
H1268       H  0.84775668  0.60970787  0.19136818     0.15400
H1269       H  0.94234607  0.63375695  0.28156836     0.15100
N1270       N  0.89344186  0.69649895  0.28374883     0.74200
O1271       O  0.88163650  0.51240841  0.21411251    -0.39200
O1272       O  0.90146458  0.54897748  0.14856424    -0.39200
O1273       O  0.88174051  0.69316437  0.32577247    -0.39900
O1274       O  0.91312668  0.72922291  0.26482687    -0.39900
C1275       C  0.57984668  0.62521840  0.25561504    -0.12200
C1276       C  0.58350378  0.58936625  0.23073168     0.04800
C1277       C  0.61798407  0.58189302  0.20297446    -0.07500
C1278       C  0.64847757  0.60930234  0.20191929    -0.08300
C1279       C  0.64539734  0.64445679  0.22822292    -0.02800
C1280       C  0.61021275  0.65285173  0.25447031     0.04000
N1281       N  0.60511092  0.68757455  0.28231670     0.66500
H1282       H  0.55337224  0.63123321  0.27702639     0.15400
H1283       H  0.67499086  0.60223354  0.18123970     0.15100
N1284       N  0.62321425  0.54458301  0.17858415     0.74200
O1285       O  0.58871961  0.72135991  0.27023176    -0.39200
O1286       O  0.60827605  0.68016351  0.32279883    -0.39200
O1287       O  0.62087240  0.54797850  0.13770830    -0.39900
O1288       O  0.62753264  0.50763815  0.19870435    -0.39900
C1289       C  0.60761326  0.83751739  0.99605263    -0.12200
C1290       C  0.63575809  0.84908885  0.01795317     0.04800
C1291       C  0.63289468  0.88874582  0.03761464    -0.07500
C1292       C  0.60207029  0.91497527  0.03615607    -0.08300
C1293       C  0.57436834  0.90378432  0.01384950    -0.02800
C1294       C  0.57717823  0.86468785  0.99352549     0.04000
N1295       N  0.54901407  0.85143033  0.47142178     0.66500
H1296       H  0.60916529  0.80725394  0.98088685     0.15400
H1297       H  0.60079411  0.94565941  0.05058733     0.15100
N1298       N  0.66243491  0.90489769  0.05581292     0.74200
O1299       O  0.55495836  0.85510770  0.42902395    -0.39200
O1300       O  0.52263880  0.82683801  0.99384039    -0.39200
O1301       O  0.68879125  0.92644898  0.52997571    -0.39900
O1302       O  0.65779672  0.90678634  0.09763049    -0.39900
C1303       C  0.92072521  0.87586233  0.99614140    -0.12200
C1304       C  0.91552049  0.91438742  0.01681001     0.04800
C1305       C  0.88016270  0.92343972  0.54102560    -0.07500
C1306       C  0.85050402  0.89465284  0.54357770    -0.08300
C1307       C  0.85514384  0.85646553  0.02237365    -0.02800
C1308       C  0.89106437  0.84663604  0.99907631     0.04000
N1309       N  0.89791043  0.80784972  0.97735900     0.66500
H1310       H  0.94801338  0.86843716  0.97756319     0.15400
H1311       H  0.82338091  0.90330205  0.56156958     0.15100
N1312       N  0.87332356  0.96352800  0.56045326     0.74200
O1313       O  0.89830947  0.80922801  0.93582301    -0.39200
O1314       O  0.91097754  0.77523726  0.99712216    -0.39200
O1315       O  0.86257550  0.99593915  0.53786666    -0.39900
O1316       O  0.87056651  0.96386321  0.60227075    -0.39900
C1317       C  0.88909629  0.65475142  0.01659997    -0.12200
C1318       C  0.86580946  0.64889564  0.48598953     0.04800
C1319       C  0.87426279  0.61557851  0.45717534    -0.07500
C1320       C  0.90484077  0.58913564  0.45959435    -0.08300
C1321       C  0.92708829  0.59379523  0.49101371    -0.02800
C1322       C  0.91942360  0.62749902  0.01941616     0.04000
N1323       N  0.94273158  0.63532787  0.05007811     0.66500
H1324       H  0.88370235  0.68037161  0.03854006     0.15400
H1325       H  0.90999697  0.56308419  0.43812405     0.15100
N1326       N  0.85097267  0.60604811  0.42704528     0.74200
O1327       O  0.97260549  0.65696054  0.03568308    -0.39200
O1328       O  0.92976989  0.62960995  0.09185095    -0.39200
O1329       O  0.86339545  0.61229355  0.38517995    -0.39900
O1330       O  0.82239269  0.58219306  0.44182804    -0.39900
C1331       C  0.58650802  0.60943944  0.02303855    -0.12200
C1332       C  0.58561597  0.58361362  0.48798803     0.04800
C1333       C  0.61496039  0.58824625  0.44982784    -0.07500
C1334       C  0.64467385  0.61684012  0.44840963    -0.08300
C1335       C  0.64570439  0.64159178  0.48405631    -0.02800
C1336       C  0.61602075  0.63843194  0.02121761     0.04000
N1337       N  0.61604790  0.66254148  0.05861288     0.66500
H1338       H  0.56401095  0.60707803  0.05230434     0.15400
H1339       H  0.66743961  0.61924976  0.41942009     0.15100
N1340       N  0.61598167  0.56299590  0.41305185     0.74200
O1341       O  0.59833201  0.69755110  0.06124804    -0.39200
O1342       O  0.62654766  0.64298811  0.59335472    -0.39200
O1343       O  0.61003197  0.57850972  0.87726939    -0.39900
O1344       O  0.63183195  0.52668610  0.41337917    -0.39900
O1345       O  0.53565552  0.53984811  0.53228400    -0.74400
O1346       O  0.95448822  0.95938243  0.54650887    -0.74400
O1347       O  0.52855637  0.95223874  0.54489830    -0.74500
O1348       O  0.96194370  0.54707248  0.53414975    -0.74500
O1349       O  0.97231920  0.54418870  0.96005265    -0.74400
O1350       O  0.53907262  0.94945976  0.97083773    -0.74400
O1351       O  0.96601857  0.95643095  0.97218614    -0.74400
O1352       O  0.54668732  0.53749229  0.95825980    -0.74500
Ni1353     Ni  0.99478116  0.99976467  0.54190211     1.25400
Ni1354     Ni  0.50642316  0.49679766  0.96308486     1.25400
C1355       C  0.55474723  0.55196319  0.99297242     0.87800
C1356       C  0.94690637  0.94495145  0.01161697     0.87700
C1357       C  0.54525258  0.93582964  0.50957872     0.87800
C1358       C  0.95574693  0.56072373  0.49529519     0.87900
O1359       O  0.95582962  0.96063738  0.79773801    -0.74400
O1360       O  0.53386960  0.54743211  0.77766519    -0.74400
O1361       O  0.95956933  0.54821871  0.78137041    -0.74500
O1362       O  0.53086197  0.95976930  0.79337807    -0.74500
O1363       O  0.54084083  0.95434780  0.71973735    -0.74400
O1364       O  0.96966945  0.54289003  0.70759576    -0.74400
O1365       O  0.54437386  0.54205970  0.70390067    -0.74400
O1366       O  0.96669009  0.95564844  0.72401689    -0.74500
Ni1367     Ni  0.99446846  0.00398034  0.79098625     1.25400
Ni1368     Ni  0.50576787  0.49877623  0.71114721     1.25400
C1369       C  0.94802101  0.94436244  0.76380789     0.87800
C1370       C  0.55225769  0.55842348  0.73771472     0.87700
C1371       C  0.95255609  0.55964888  0.74244972     0.87800
C1372       C  0.54804095  0.94291418  0.75862103     0.87900
O1373       O  0.68619773  0.82244917  0.55039778    -0.80800
O1374       O  0.82350904  0.70336245  0.51466361    -0.65500
O1375       O  0.75098265  0.79018093  0.99986754    -1.12100
C1376       C  0.67964025  0.66790720  0.98253196     1.06000
O1377       O  0.81508246  0.67612806  0.95409733    -0.78700
O1378       O  0.76291896  0.70350298  0.90894477    -0.66300
Ni1379     Ni  0.73885843  0.83239097  0.54134293     1.34900
C1380       C  0.74679191  0.73899868  0.90131007     0.84800
O1381       O  0.82491273  0.79073478  0.51130509    -0.79300
O1382       O  0.79028915  0.84686770  0.53524285    -0.89600
C1383       C  0.83310401  0.67752061  0.98523006     0.84400
O1384       O  0.73860288  0.79535606  0.59534213    -0.67800
O1385       O  0.71087072  0.65078033  0.96821984    -0.87000
C1386       C  0.75391152  0.75940991  0.60348804     0.85200
C1387       C  0.82161163  0.82920072  0.52304437     1.06700
H1388       H  0.74180531  0.69064889  0.53408717     0.38600
O1389       O  0.74995719  0.70704781  0.50502144    -1.09700
O1390       O  0.72632385  0.75788912  0.93210365    -0.66400
Ni1391     Ni  0.71298319  0.74910713  0.99697031     1.26300
O1392       O  0.77370317  0.73936491  0.57314105    -0.66600
O1393       O  0.67617506  0.70590061  0.99539125    -0.78900
C1394       C  0.66810159  0.82030619  0.51948140     0.84600
O1395       O  0.67701364  0.79325925  0.99094946    -0.66100
Ni1396     Ni  0.76243590  0.66565320  0.96256766     1.27400
Ni1397     Ni  0.78791719  0.74793784  0.50845485     1.26100
H1398       H  0.75927581  0.80628213  0.97038147     0.39100
O1399       O  0.68541784  0.82366869  0.79913279    -0.80800
O1400       O  0.82344170  0.70583592  0.76519452    -0.65500
O1401       O  0.75096071  0.79196933  0.75049552    -1.12100
C1402       C  0.67978149  0.67002082  0.72925431     1.06400
O1403       O  0.81503674  0.67866098  0.70425533    -0.78700
O1404       O  0.76267648  0.70351638  0.65871316    -0.66300
Ni1405     Ni  0.73809401  0.83328669  0.79306373     1.34900
C1406       C  0.74828145  0.74001154  0.65048516     0.84800
O1407       O  0.82437072  0.79274639  0.76193905    -0.79300
O1408       O  0.78974852  0.84762159  0.78958982    -0.89600
C1409       C  0.83339706  0.68063178  0.73502863     0.84400
O1410       O  0.73603456  0.79472131  0.84665753    -0.67800
O1411       O  0.71099635  0.65146898  0.71863788    -0.87000
C1412       C  0.75229538  0.75933412  0.85446966     0.85200
C1413       C  0.82105059  0.83049163  0.77537334     1.06700
H1414       H  0.74092010  0.69296888  0.78405594     0.38600
O1415       O  0.74978183  0.70912757  0.75480335    -1.09700
O1416       O  0.72907456  0.76054929  0.68078838    -0.66400
Ni1417     Ni  0.71337534  0.75128149  0.74520088     1.26300
O1418       O  0.77333266  0.74075056  0.82387032    -0.66600
O1419       O  0.67674676  0.70876558  0.74033825    -0.78900
C1420       C  0.66801785  0.82182330  0.76734142     0.84600
O1421       O  0.67821549  0.79583041  0.73797395    -0.66100
Ni1422     Ni  0.76250948  0.66700302  0.71306288     1.27400
Ni1423     Ni  0.78764089  0.74994942  0.75908254     1.26100
H1424       H  0.75975862  0.80872895  0.72151710     0.39100
C1425       C  0.58445477  0.87937654  0.73192565    -0.12200
C1426       C  0.57702925  0.91025163  0.76296188     0.04800
C1427       C  0.59866387  0.91058116  0.79616105    -0.07500
C1428       C  0.62713011  0.88064635  0.79750847    -0.08300
C1429       C  0.63534910  0.85025005  0.76584852    -0.02800
C1430       C  0.61327588  0.84963318  0.73286942     0.04000
N1431       N  0.61989951  0.81981593  0.69952770     0.66500
H1432       H  0.56809931  0.87868772  0.70617516     0.15400
H1433       H  0.64368593  0.88237176  0.82289619     0.15100
N1434       N  0.59407393  0.94313221  0.82666631     0.74200
O1435       O  0.59607493  0.79029504  0.70038764    -0.39200
O1436       O  0.64392863  0.82945827  0.66397798    -0.39200
O1437       O  0.61424782  0.97715163  0.81714392    -0.39900
O1438       O  0.57566941  0.93416430  0.86620428    -0.39900
C1439       C  0.85582312  0.88323127  0.80830443    -0.12200
C1440       C  0.85507830  0.85648411  0.77411346     0.04800
C1441       C  0.88594031  0.85723455  0.73798370    -0.07500
C1442       C  0.91628026  0.88503742  0.73623065    -0.08300
C1443       C  0.91673179  0.91263113  0.76981420    -0.02800
C1444       C  0.88621189  0.91106960  0.80658080     0.04000
N1445       N  0.88447839  0.93928533  0.84105528     0.66500
H1446       H  0.83229192  0.88315764  0.83620966     0.15400
H1447       H  0.93926847  0.88578251  0.70761413     0.15100
N1448       N  0.88574176  0.83270417  0.70093036     0.74200
O1449       O  0.86889778  0.97558945  0.83730396    -0.39200
O1450       O  0.89150118  0.92452847  0.87855744    -0.39200
O1451       O  0.87449356  0.85027531  0.66695846    -0.39900
O1452       O  0.90449067  0.79848846  0.69770047    -0.39900
C1453       C  0.86893788  0.61624115  0.71033875    -0.12200
C1454       C  0.86625038  0.65254293  0.73490230     0.04800
C1455       C  0.89356273  0.65903458  0.76032251    -0.07500
C1456       C  0.92186402  0.62869506  0.76180961    -0.08300
C1457       C  0.92368618  0.59201418  0.73815804    -0.02800
C1458       C  0.89698706  0.58589458  0.71211854     0.04000
N1459       N  0.89576348  0.54695349  0.69094470     0.66500
H1460       H  0.84801199  0.60998503  0.69126566     0.15400
H1461       H  0.94256438  0.63383153  0.78157232     0.15100
N1462       N  0.89360044  0.69650921  0.78395952     0.74200
O1463       O  0.88204812  0.51250053  0.71433850    -0.39200
O1464       O  0.90124583  0.54902279  0.64863031    -0.39200
O1465       O  0.88210419  0.69291828  0.82602480    -0.39900
O1466       O  0.91301608  0.72944869  0.76507541    -0.39900
C1467       C  0.58005200  0.62550834  0.75586085    -0.12200
C1468       C  0.58368398  0.58949778  0.73121487     0.04800
C1469       C  0.61819142  0.58177392  0.70364582    -0.07500
C1470       C  0.64872090  0.60915777  0.70248064    -0.08300
C1471       C  0.64566022  0.64449263  0.72853966    -0.02800
C1472       C  0.61046914  0.65307495  0.75466319     0.04000
N1473       N  0.60542358  0.68787425  0.78241240     0.66500
H1474       H  0.55356496  0.63167899  0.77716106     0.15400
H1475       H  0.67524410  0.60191952  0.68193031     0.15100
N1476       N  0.62341281  0.54421285  0.67963316     0.74200
O1477       O  0.58880972  0.72152343  0.77044016    -0.39200
O1478       O  0.60890945  0.68062440  0.82279154    -0.39200
O1479       O  0.62112644  0.54723485  0.63875044    -0.39900
O1480       O  0.62771040  0.50742562  0.70008941    -0.39900
C1481       C  0.60771145  0.83751459  0.49592201    -0.12200
C1482       C  0.63581700  0.84904482  0.51790113     0.04800
C1483       C  0.63295537  0.88869289  0.53757393    -0.07500
C1484       C  0.60216964  0.91496236  0.53604042    -0.08300
C1485       C  0.57450362  0.90380618  0.51366576    -0.02800
C1486       C  0.57731132  0.86471597  0.49333269     0.04000
N1487       N  0.54885223  0.85137169  0.97167623     0.66500
H1488       H  0.60926487  0.80725712  0.48074501     0.15400
H1489       H  0.60088747  0.94563648  0.55049120     0.15100
N1490       N  0.66245120  0.90477881  0.55589281     0.74200
O1491       O  0.55471143  0.85512861  0.92928056    -0.39200
O1492       O  0.52275152  0.82695098  0.49355779    -0.39200
O1493       O  0.68876256  0.92649238  0.02978746    -0.39900
O1494       O  0.65776664  0.90650640  0.59773949    -0.39900
C1495       C  0.92086874  0.87527894  0.49664980    -0.12200
C1496       C  0.91555484  0.91399877  0.51696317     0.04800
C1497       C  0.88019329  0.92369368  0.04116948    -0.07500
C1498       C  0.85052240  0.89488928  0.04379632    -0.08300
C1499       C  0.85521150  0.85605632  0.52245033    -0.02800
C1500       C  0.89122750  0.84600590  0.49961476     0.04000
N1501       N  0.89822525  0.80686356  0.47855392     0.66500
H1502       H  0.94823019  0.86771586  0.47838180     0.15400
H1503       H  0.82345148  0.90339318  0.06205890     0.15100
N1504       N  0.87340552  0.96369843  0.06077104     0.74200
O1505       O  0.89929534  0.80771953  0.43691430    -0.39200
O1506       O  0.91080136  0.77440008  0.49913167    -0.39200
O1507       O  0.86263498  0.99619659  0.03832873    -0.39900
O1508       O  0.87069816  0.96387505  0.10259921    -0.39900
C1509       C  0.88884029  0.65435981  0.51670809    -0.12200
C1510       C  0.86594307  0.64920069  0.98603683     0.04800
C1511       C  0.87422885  0.61572354  0.95739406    -0.07500
C1512       C  0.90478737  0.58923892  0.95978380    -0.08300
C1513       C  0.92717102  0.59400046  0.99103284    -0.02800
C1514       C  0.91919428  0.62716474  0.51953385     0.04000
N1515       N  0.94238034  0.63493275  0.55034952     0.66500
H1516       H  0.88332723  0.67986653  0.53877374     0.15400
H1517       H  0.90981873  0.56307500  0.93844414     0.15100
N1518       N  0.85075970  0.60605414  0.92751607     0.74200
O1519       O  0.97224966  0.65661091  0.53612040    -0.39200
O1520       O  0.92927926  0.62918966  0.59208842    -0.39200
O1521       O  0.86297001  0.61221907  0.88560459    -0.39900
O1522       O  0.82221541  0.58220233  0.94256363    -0.39900
C1523       C  0.58640429  0.60914245  0.52324785    -0.12200
C1524       C  0.58597696  0.58338074  0.98814240     0.04800
C1525       C  0.61559698  0.58743487  0.95028950    -0.07500
C1526       C  0.64526235  0.61613460  0.94874430    -0.08300
C1527       C  0.64601828  0.64149062  0.98400684    -0.02800
C1528       C  0.61593083  0.63808076  0.52152142     0.04000
N1529       N  0.61620921  0.66166628  0.55922977     0.66500
H1530       H  0.56411049  0.60639469  0.55273754     0.15400
H1531       H  0.66821525  0.61812786  0.91998088     0.15100
N1532       N  0.61697476  0.56141291  0.91404307     0.74200
O1533       O  0.59859167  0.69670614  0.56241563    -0.39200
O1534       O  0.62633149  0.64438141  0.09299955    -0.39200
O1535       O  0.60850248  0.58076203  0.37681651    -0.39900
O1536       O  0.63259134  0.52498020  0.91546066    -0.39900
loop_ 
_geom_bond_atom_site_label_1 
_geom_bond_atom_site_label_2 
_geom_bond_distance 
_geom_bond_site_symmetry_2 
_ccdc_geom_bond_type 
O1        Ni1161   1.908   1_445  S
O1          C203   1.281   1_554  A
O2           Ni9   1.914       .  S
O2          C204   1.280       .  A
O3         Ni777   1.918   1_455  S
O3           C13   1.282       .  A
O4         Ni393   1.918   1_545  S
O4           C14   1.280   1_554  A
O5         Ni778   1.919   1_545  S
O5          C206   1.283       .  A
O6         Ni394   1.918       .  S
O6          C205   1.280       .  A
O7        Ni1162   1.910       .  S
O7           C12   1.279       .  A
O8          Ni10   1.918   1_545  S
O8           C11   1.281       .  A
Ni9        O1153   1.907       .  S
Ni9         O771   1.919       .  S
Ni9         O388   1.919       .  S
Ni9       Ni1354   2.390   1_554  S
Ni10        O773   1.918   1_465  S
Ni10        O390   1.918       .  S
Ni10       O1159   1.910   1_455  S
Ni10      Ni1353   2.390   1_455  S
C11         O193   1.281       .  A
C11         C180   1.481       .  S
C12         O194   1.280       .  A
C12         C344   1.466       .  S
C13         O198   1.280   1_554  A
C13         C141   1.473       .  S
C14         O197   1.283       .  A
C14         C361   1.480       .  S
O15         Ni23   1.921       .  S
O15          C25   1.282       .  A
O16       Ni1175   1.913   1_455  S
O16          C26   1.280       .  A
O17        Ni407   1.910       .  S
O17          C27   1.279       .  A
O18        Ni791   1.917   1_455  S
O18          C28   1.281       .  A
O19        Ni408   1.912       .  S
O19          C28   1.281       .  A
O20        Ni792   1.916   1_545  S
O20          C27   1.281       .  A
O21         Ni24   1.919   1_545  S
O21          C26   1.281       .  A
O22       Ni1176   1.912       .  S
O22          C25   1.282       .  A
Ni23       O1168   1.912       .  S
Ni23        O401   1.910       .  S
Ni23        O786   1.916       .  S
Ni23      Ni1176   2.389       .  S
Ni24        O403   1.913       .  S
Ni24        O788   1.916   1_465  S
Ni24       O1174   1.913   1_455  S
Ni24      Ni1175   2.389   1_465  S
C25          C99   1.484       .  S
C26         C124   1.474       .  S
C27         C113   1.470       .  S
C28          C82   1.479       .  S
O29         Ni35   1.920       .  S
O29          C50   1.267       .  A
O30         Ni53   1.917       .  S
O30         C231   1.270   1_554  A
O31          H54   0.972       .  S
O31         Ni47   1.912       .  S
O31        Ni227   1.911       .  S
O31        Ni245   1.912       .  S
C32          O49   1.275       .  A
C32          O41   1.276       .  A
C32         C183   1.473       .  S
O33         Ni52   1.923       .  S
O33          C39   1.268       .  A
O34         Ni52   1.905       .  S
O34          C36   1.266       .  A
Ni35         O38   1.911       .  S
Ni35         O40   1.902       .  S
Ni35        O223   1.911       .  S
C36          O46   1.272       .  A
C36          C68   1.474       .  S
O37         Ni53   1.921       .  S
O37          C43   1.276       .  A
O38          C43   1.275       .  A
C39         O222   1.270       .  A
C39         C166   1.491       .  S
O40          C42   1.267       .  A
O41         Ni52   1.921       .  S
C42          O48   1.272       .  A
C42          C62   1.470       .  S
C43         C155   1.485       .  S
H44          O45   0.965       .  S
O45         Ni53   1.912       .  S
O45        Ni239   1.909   1_554  S
O45        Ni244   1.912   1_554  S
O46         Ni47   1.931       .  S
Ni47         O51   1.914       .  S
Ni47         O49   1.915       .  S
Ni47        O237   1.909       .  S
O48         Ni53   1.929       .  S
C50         O243   1.268   1_554  A
C50         C138   1.484       .  S
O51         C242   1.268       .  A
Ni52        O237   1.912       .  S
Ni53        O223   1.912       .  S
O55         Ni61   1.928       .  S
O55          C76   1.272       .  A
O56         Ni79   1.911       .  S
O56          C65   1.267       .  A
O57          H80   0.971       .  S
O57         Ni61   1.910       .  S
O57         Ni79   1.904       .  S
O57         Ni73   1.914       .  S
C58          O75   1.278       .  A
C58          O67   1.278       .  A
C58         C127   1.490       .  S
O59         Ni78   1.924       .  S
O59          C65   1.269       .  A
O60         Ni78   1.903       .  S
O60          C62   1.266       .  A
Ni61         O64   1.930       .  S
Ni61         O66   1.907       .  S
C62          O72   1.271       .  A
O63         Ni79   1.914       .  S
O63          C69   1.275       .  A
O64          C69   1.278       .  A
C65         C110   1.483       .  S
O66          C68   1.267       .  A
O67         Ni78   1.924       .  S
C68          O74   1.273       .  A
C69          C96   1.480       .  S
H70          O71   0.970       .  S
O71         Ni79   1.915       .  S
O71         Ni73   1.906       .  S
O71         Ni78   1.910       .  S
O72         Ni73   1.926       .  S
Ni73         O77   1.909       .  S
Ni73         O75   1.924       .  S
O74         Ni79   1.932       .  S
C76          O77   1.268       .  A
C76          C85   1.489       .  S
C81          C82   1.404       .  A
C81          C86   1.402       .  A
C81          H88   1.084       .  S
C82          C83   1.410       .  A
C83          C84   1.397       .  A
C83          N90   1.430       .  S
C84          C85   1.408       .  A
C84          H89   1.084       .  S
C85          C86   1.417       .  A
C86          N87   1.430       .  S
N87          O91   1.261       .  A
N87          O92   1.262       .  A
N90          O94   1.261       .  A
N90          O93   1.262       .  A
C95          C96   1.404       .  A
C95         C100   1.401       .  A
C95         H102   1.084       .  S
C96          C97   1.411       .  A
C97          C98   1.399       .  A
C97         N104   1.429       .  S
C98          C99   1.405       .  A
C98         H103   1.084       .  S
C99         C100   1.414       .  A
C100        N101   1.429       .  S
N101        O105   1.262       .  A
N101        O106   1.262       .  A
N104        O108   1.261       .  A
N104        O107   1.262       .  A
C109        C110   1.407       .  A
C109        C114   1.395       .  A
C109        H116   1.084       .  S
C110        C111   1.414       .  A
C111        C112   1.401       .  A
C111        N118   1.429       .  S
C112        C113   1.403       .  A
C112        H117   1.084       .  S
C113        C114   1.407       .  A
C114        N115   1.431       .  S
N115        O119   1.262       .  A
N115        O120   1.262       .  A
N118        O122   1.261       .  A
N118        O121   1.261       .  A
C123        C124   1.401       .  A
C123        C128   1.401       .  A
C123        H130   1.084       .  S
C124        C125   1.408       .  A
C125        C126   1.400       .  A
C125        N132   1.430       .  S
C126        C127   1.410       .  A
C126        H131   1.084       .  S
C127        C128   1.415       .  A
C128        N129   1.428       .  S
N129        O133   1.261       .  A
N129        O134   1.262       .  A
N132        O136   1.262       .  A
N132        O135   1.262       .  A
C137        C138   1.407   1_556  A
C137        C142   1.405       .  A
C137        H144   1.084       .  S
C138        C139   1.416       .  A
C139        C140   1.395       .  A
C139        N146   1.430       .  S
C140        C141   1.398       .  A
C140        H145   1.085       .  S
C141        C142   1.411   1_554  A
C142        N335   1.429       .  S
N143        C334   1.429       .  S
N143        O147   1.261       .  A
N143        O340   1.262       .  A
N146        O150   1.261       .  A
N146        O341   1.262       .  A
O148        N335   1.262       .  A
O149        N338   1.262       .  A
C151        C152   1.401   1_556  A
C151        C156   1.401       .  A
C151        H158   1.084       .  S
C152        C204   1.466       .  S
C152        C345   1.405       .  A
C153        C154   1.394       .  A
C153        C344   1.405       .  A
C153        N160   1.430       .  S
C154        C347   1.410       .  A
C154        H159   1.084       .  S
C155        C156   1.415   1_554  A
C155        C346   1.409       .  A
C156        N157   1.429       .  S
N157        O161   1.262       .  A
N157        O162   1.262       .  A
N160        O164   1.262       .  A
N160        O163   1.262       .  A
C165        C170   1.405       .  A
C165        C358   1.408   1_554  A
C165        H172   1.084       .  S
C166        C167   1.419       .  A
C166        C357   1.408       .  A
C167        C168   1.396       .  A
C167        N174   1.430       .  S
C168        C169   1.399       .  A
C168        H173   1.084       .  S
C169        C206   1.480       .  S
C169        C362   1.412       .  A
C170        C361   1.412   1_554  A
C170        N171   1.430       .  S
N171        O175   1.262       .  A
N171        O176   1.262       .  A
N174        O178   1.262       .  A
N174        O177   1.262       .  A
C179        C184   1.398       .  A
C179        C372   1.407   1_554  A
C179        H186   1.084       .  S
C180        C181   1.414       .  A
C180        C371   1.407       .  A
C181        C182   1.398       .  A
C181        N188   1.429       .  S
C182        C183   1.403       .  A
C182        H187   1.084       .  S
C183        C376   1.409       .  A
C184        C375   1.409   1_554  A
C184        N185   1.429       .  S
N185        O189   1.262       .  A
N185        O382   1.262       .  A
N188        O192   1.262       .  A
N188        O383   1.262       .  A
O190        N377   1.262       .  A
O191        N380   1.262       .  A
O193      Ni1353   1.908   1_445  S
O194       Ni201   1.913       .  S
O195       Ni969   1.918   1_455  S
O195        C205   1.282       .  A
O196       Ni585   1.918   1_545  S
O196        C206   1.280       .  A
O197       Ni970   1.919   1_545  S
O198       Ni586   1.918       .  S
O199      Ni1354   1.910       .  S
O199        C204   1.279   1_556  A
O200       Ni202   1.918   1_545  S
O200        C203   1.281       .  A
Ni201      O1345   1.907       .  S
Ni201       O963   1.918       .  S
Ni201       O580   1.918       .  S
Ni201     Ni1162   2.390       .  S
Ni202       O965   1.918   1_465  S
Ni202       O582   1.918       .  S
Ni202      O1351   1.910   1_455  S
Ni202     Ni1161   2.390   1_456  S
C203        C372   1.481       .  S
C205        C333   1.472       .  S
O207       Ni215   1.921       .  S
O207        C217   1.282       .  A
O208      Ni1367   1.913   1_455  S
O208        C218   1.280       .  A
O209       Ni599   1.910       .  S
O209        C219   1.279       .  A
O210       Ni983   1.917   1_455  S
O210        C220   1.281       .  A
O211       Ni600   1.913       .  S
O211        C220   1.281       .  A
O212       Ni984   1.917   1_545  S
O212        C219   1.281       .  A
O213       Ni216   1.918   1_545  S
O213        C218   1.281       .  A
O214      Ni1368   1.911       .  S
O214        C217   1.281       .  A
Ni215      O1360   1.913       .  S
Ni215       O593   1.910       .  S
Ni215       O978   1.917       .  S
Ni215     Ni1368   2.389       .  S
Ni216       O595   1.913       .  S
Ni216       O980   1.916   1_465  S
Ni216      O1366   1.912   1_455  S
Ni216     Ni1367   2.389   1_465  S
C217        C291   1.484       .  S
C218        C316   1.474       .  S
C219        C305   1.470       .  S
C220        C274   1.479       .  S
O221       Ni227   1.920       .  S
O221        C242   1.267       .  A
O222       Ni245   1.917       .  S
O223        H246   0.972   1_554  S
O223       Ni239   1.912   1_554  S
C224        O241   1.275       .  A
C224        O233   1.276       .  A
C224        C375   1.474       .  S
O225       Ni244   1.923       .  S
O225        C231   1.268       .  A
O226       Ni244   1.904       .  S
O226        C228   1.266       .  A
Ni227       O230   1.911       .  S
Ni227       O232   1.902       .  S
C228        O238   1.272       .  A
C228        C260   1.474       .  S
O229       Ni245   1.921       .  S
O229        C235   1.276       .  A
O230        C235   1.275       .  A
C231        C358   1.491       .  S
O232        C234   1.266       .  A
O233       Ni244   1.921       .  S
C234        O240   1.272       .  A
C234        C254   1.469       .  S
C235        C347   1.486       .  S
H236        O237   0.965       .  S
O237       Ni245   1.912       .  S
O238       Ni239   1.931       .  S
Ni239       O243   1.915       .  S
Ni239       O241   1.916       .  S
O240       Ni245   1.929       .  S
C242        C330   1.484       .  S
O247       Ni253   1.928       .  S
O247        C268   1.272       .  A
O248       Ni271   1.912       .  S
O248        C257   1.267       .  A
O249        H272   0.971       .  S
O249       Ni253   1.910       .  S
O249       Ni271   1.904       .  S
O249       Ni265   1.914       .  S
C250        O267   1.278       .  A
C250        O259   1.278       .  A
C250        C319   1.490       .  S
O251       Ni270   1.923       .  S
O251        C257   1.269       .  A
O252       Ni270   1.903       .  S
O252        C254   1.266       .  A
Ni253       O256   1.930       .  S
Ni253       O258   1.906       .  S
C254        O264   1.271       .  A
O255       Ni271   1.914       .  S
O255        C261   1.275       .  A
O256        C261   1.278       .  A
C257        C302   1.483       .  S
O258        C260   1.267       .  A
O259       Ni270   1.924       .  S
C260        O266   1.273       .  A
C261        C288   1.480       .  S
H262        O263   0.970       .  S
O263       Ni271   1.915       .  S
O263       Ni265   1.906       .  S
O263       Ni270   1.910       .  S
O264       Ni265   1.926       .  S
Ni265       O269   1.909       .  S
Ni265       O267   1.924       .  S
O266       Ni271   1.933       .  S
C268        O269   1.268       .  A
C268        C277   1.489       .  S
C273        C274   1.404       .  A
C273        C278   1.402       .  A
C273        H280   1.084       .  S
C274        C275   1.410       .  A
C275        C276   1.397       .  A
C275        N282   1.430       .  S
C276        C277   1.408       .  A
C276        H281   1.084       .  S
C277        C278   1.417       .  A
C278        N279   1.430       .  S
N279        O283   1.261       .  A
N279        O284   1.262       .  A
N282        O286   1.261       .  A
N282        O285   1.262       .  A
C287        C288   1.404       .  A
C287        C292   1.402       .  A
C287        H294   1.084       .  S
C288        C289   1.411       .  A
C289        C290   1.399       .  A
C289        N296   1.429       .  S
C290        C291   1.405       .  A
C290        H295   1.084       .  S
C291        C292   1.414       .  A
C292        N293   1.429       .  S
N293        O297   1.262       .  A
N293        O298   1.262       .  A
N296        O300   1.261       .  A
N296        O299   1.262       .  A
C301        C302   1.408       .  A
C301        C306   1.396       .  A
C301        H308   1.084       .  S
C302        C303   1.414       .  A
C303        C304   1.401       .  A
C303        N310   1.429       .  S
C304        C305   1.403       .  A
C304        H309   1.084       .  S
C305        C306   1.407       .  A
C306        N307   1.431       .  S
N307        O311   1.262       .  A
N307        O312   1.262       .  A
N310        O314   1.261       .  A
N310        O313   1.261       .  A
C315        C316   1.401       .  A
C315        C320   1.401       .  A
C315        H322   1.084       .  S
C316        C317   1.408       .  A
C317        C318   1.400       .  A
C317        N324   1.430       .  S
C318        C319   1.410       .  A
C318        H323   1.084       .  S
C319        C320   1.415       .  A
C320        N321   1.428       .  S
N321        O325   1.261       .  A
N321        O326   1.262       .  A
N324        O328   1.262       .  A
N324        O327   1.262       .  A
C329        C330   1.407       .  A
C329        C334   1.405       .  A
C329        H336   1.084       .  S
C330        C331   1.416       .  A
C331        C332   1.395       .  A
C331        N338   1.430       .  S
C332        C333   1.398       .  A
C332        H337   1.085       .  S
C333        C334   1.411       .  A
N335        O339   1.261       .  A
N338        O342   1.261       .  A
C343        C344   1.401       .  A
C343        C348   1.401       .  A
C343        H350   1.084       .  S
C345        C346   1.395       .  A
C345        N352   1.430       .  S
C346        H351   1.084       .  S
C347        C348   1.415       .  A
C348        N349   1.428       .  S
N349        O353   1.262       .  A
N349        O354   1.262       .  A
N352        O356   1.262       .  A
N352        O355   1.262       .  A
C357        C362   1.405       .  A
C357        H364   1.084       .  S
C358        C359   1.419       .  A
C359        C360   1.396       .  A
C359        N366   1.430       .  S
C360        C361   1.399       .  A
C360        H365   1.084       .  S
C362        N363   1.430       .  S
N363        O367   1.262       .  A
N363        O368   1.262       .  A
N366        O370   1.262       .  A
N366        O369   1.262       .  A
C371        C376   1.398       .  A
C371        H378   1.084       .  S
C372        C373   1.413       .  A
C373        C374   1.398       .  A
C373        N380   1.429       .  S
C374        C375   1.403       .  A
C374        H379   1.084       .  S
C376        N377   1.429       .  S
N377        O381   1.262       .  A
N380        O384   1.262       .  A
O385       Ni777   1.908   1_455  S
O385        C587   1.281   1_554  A
O386       Ni393   1.914       .  S
O386        C588   1.280       .  A
O387      Ni1161   1.918   1_455  S
O387        C397   1.282       .  A
O388        C398   1.280   1_554  A
O389      Ni1162   1.919       .  S
O389        C590   1.283       .  A
O390        C589   1.280       .  A
O391       Ni778   1.910       .  S
O391        C396   1.280       .  A
O392       Ni394   1.918       .  S
O392        C395   1.281       .  A
Ni393       O769   1.907   1_565  S
Ni393      O1155   1.919       .  S
Ni393      Ni970   2.390   1_554  S
Ni394      O1157   1.918   1_455  S
Ni394       O775   1.910   1_455  S
Ni394      Ni969   2.390   1_455  S
C395        O577   1.281       .  A
C395        C564   1.481       .  S
C396        O578   1.280       .  A
C396        C728   1.466       .  S
C397        O582   1.280   1_554  A
C397        C525   1.473       .  S
C398        O581   1.283       .  A
C398        C745   1.480       .  S
O399       Ni407   1.920   1_565  S
O399        C409   1.282       .  A
O400       Ni791   1.913   1_455  S
O400        C410   1.280       .  A
O401        C411   1.279       .  A
O402      Ni1175   1.916   1_465  S
O402        C412   1.281       .  A
O403        C412   1.281       .  A
O404      Ni1176   1.916       .  S
O404        C411   1.281       .  A
O405       Ni408   1.919       .  S
O405        C410   1.281       .  A
O406       Ni792   1.912       .  S
O406        C409   1.282       .  A
Ni407       O784   1.912       .  S
Ni407      O1170   1.916   1_545  S
Ni407      Ni792   2.389   1_545  S
Ni408      O1172   1.916   1_455  S
Ni408       O790   1.913   1_455  S
Ni408      Ni791   2.389   1_455  S
C409        C483   1.484       .  S
C410        C508   1.474       .  S
C411        C497   1.470       .  S
C412        C466   1.479       .  S
O413       Ni419   1.920       .  S
O413        C434   1.267       .  A
O414       Ni437   1.917       .  S
O414        C615   1.270   1_554  A
O415        H438   0.972       .  S
O415       Ni611   1.911       .  S
O415       Ni629   1.912       .  S
O415       Ni431   1.912       .  S
C416        O433   1.275       .  A
C416        O425   1.276       .  A
C416        C567   1.473       .  S
O417       Ni436   1.923       .  S
O417        C423   1.268       .  A
O418       Ni436   1.904       .  S
O418        C420   1.266       .  A
Ni419       O422   1.911       .  S
Ni419       O424   1.902       .  S
Ni419       O607   1.911       .  S
C420        O430   1.272       .  A
C420        C452   1.474       .  S
O421       Ni437   1.921       .  S
O421        C427   1.276       .  A
O422        C427   1.275       .  A
C423        O606   1.270       .  A
C423        C550   1.491       .  S
O424        C426   1.267       .  A
O425       Ni436   1.921       .  S
C426        O432   1.272       .  A
C426        C446   1.469       .  S
C427        C539   1.485       .  S
H428        O429   0.965       .  S
O429       Ni437   1.912       .  S
O429       Ni623   1.909   1_554  S
O429       Ni628   1.912   1_554  S
O430       Ni431   1.932       .  S
Ni431       O435   1.914       .  S
Ni431       O433   1.915       .  S
Ni431       O621   1.909       .  S
O432       Ni437   1.929       .  S
C434        O627   1.268   1_554  A
C434        C522   1.484       .  S
O435        C626   1.268       .  A
Ni436       O621   1.912       .  S
Ni437       O607   1.912       .  S
O439       Ni445   1.928       .  S
O439        C460   1.272       .  A
O440       Ni463   1.911       .  S
O440        C449   1.267       .  A
O441        H464   0.971       .  S
O441       Ni445   1.910       .  S
O441       Ni463   1.904       .  S
O441       Ni457   1.914       .  S
C442        O459   1.277       .  A
C442        O451   1.278       .  A
C442        C511   1.489       .  S
O443       Ni462   1.924       .  S
O443        C449   1.269       .  A
O444       Ni462   1.903       .  S
O444        C446   1.266       .  A
Ni445       O448   1.930       .  S
Ni445       O450   1.906       .  S
C446        O456   1.271       .  A
O447       Ni463   1.914       .  S
O447        C453   1.275       .  A
O448        C453   1.278       .  A
C449        C494   1.483       .  S
O450        C452   1.267       .  A
O451       Ni462   1.924       .  S
C452        O458   1.273       .  A
C453        C480   1.480       .  S
H454        O455   0.970       .  S
O455       Ni463   1.915       .  S
O455       Ni457   1.906       .  S
O455       Ni462   1.910       .  S
O456       Ni457   1.926       .  S
Ni457       O461   1.909       .  S
Ni457       O459   1.924       .  S
O458       Ni463   1.932       .  S
C460        O461   1.268       .  A
C460        C469   1.489       .  S
C465        C466   1.404       .  A
C465        C470   1.402       .  A
C465        H472   1.084       .  S
C466        C467   1.410       .  A
C467        C468   1.397       .  A
C467        N474   1.430       .  S
C468        C469   1.408       .  A
C468        H473   1.084       .  S
C469        C470   1.417       .  A
C470        N471   1.430       .  S
N471        O475   1.261       .  A
N471        O476   1.262       .  A
N474        O478   1.261       .  A
N474        O477   1.262       .  A
C479        C480   1.404       .  A
C479        C484   1.401       .  A
C479        H486   1.084       .  S
C480        C481   1.411       .  A
C481        C482   1.399       .  A
C481        N488   1.429       .  S
C482        C483   1.405       .  A
C482        H487   1.084       .  S
C483        C484   1.414       .  A
C484        N485   1.429       .  S
N485        O489   1.262       .  A
N485        O490   1.262       .  A
N488        O492   1.261       .  A
N488        O491   1.262       .  A
C493        C494   1.407       .  A
C493        C498   1.395       .  A
C493        H500   1.084       .  S
C494        C495   1.414       .  A
C495        C496   1.402       .  A
C495        N502   1.429       .  S
C496        C497   1.403       .  A
C496        H501   1.084       .  S
C497        C498   1.407       .  A
C498        N499   1.431       .  S
N499        O503   1.262       .  A
N499        O504   1.262       .  A
N502        O506   1.261       .  A
N502        O505   1.261       .  A
C507        C508   1.401       .  A
C507        C512   1.401       .  A
C507        H514   1.084       .  S
C508        C509   1.408       .  A
C509        C510   1.400       .  A
C509        N516   1.430       .  S
C510        C511   1.410       .  A
C510        H515   1.084       .  S
C511        C512   1.415       .  A
C512        N513   1.428       .  S
N513        O517   1.261       .  A
N513        O518   1.262       .  A
N516        O520   1.262       .  A
N516        O519   1.262       .  A
C521        C522   1.407   1_556  A
C521        C526   1.405       .  A
C521        H528   1.084       .  S
C522        C523   1.416       .  A
C523        C524   1.395       .  A
C523        N530   1.430       .  S
C524        C525   1.398       .  A
C524        H529   1.085       .  S
C525        C526   1.411   1_554  A
C526        N719   1.429       .  S
N527        C718   1.429       .  S
N527        O531   1.261       .  A
N527        O724   1.262       .  A
N530        O534   1.261       .  A
N530        O725   1.262       .  A
O532        N719   1.262       .  A
O533        N722   1.262       .  A
C535        C536   1.401   1_556  A
C535        C540   1.401       .  A
C535        H542   1.084       .  S
C536        C588   1.466       .  S
C536        C729   1.405       .  A
C537        C728   1.405       .  A
C537        C538   1.394       .  A
C537        N544   1.430       .  S
C538        C731   1.409       .  A
C538        H543   1.084       .  S
C539        C730   1.410       .  A
C539        C540   1.415   1_554  A
C540        N541   1.428       .  S
N541        O545   1.262       .  A
N541        O546   1.262       .  A
N544        O548   1.262       .  A
N544        O547   1.262       .  A
C549        C742   1.408   1_554  A
C549        C554   1.405       .  A
C549        H556   1.084       .  S
C550        C741   1.408       .  A
C550        C551   1.419       .  A
C551        C552   1.396       .  A
C551        N558   1.430       .  S
C552        C553   1.399       .  A
C552        H557   1.084       .  S
C553        C590   1.480       .  S
C553        C746   1.412       .  A
C554        C745   1.412   1_554  A
C554        N555   1.430       .  S
N555        O559   1.262       .  A
N555        O560   1.262       .  A
N558        O562   1.262       .  A
N558        O561   1.262       .  A
C563        C756   1.407   1_554  A
C563        C568   1.398       .  A
C563        H570   1.084       .  S
C564        C755   1.407       .  A
C564        C565   1.413       .  A
C565        C566   1.398       .  A
C565        N572   1.429       .  S
C566        C567   1.403       .  A
C566        H571   1.084       .  S
C567        C760   1.409       .  A
C568        C759   1.409   1_554  A
C568        N569   1.429       .  S
N569        O573   1.262       .  A
N569        O766   1.262       .  A
N572        O576   1.262       .  A
N572        O767   1.262       .  A
O574        N761   1.262       .  A
O575        N764   1.262       .  A
O577       Ni969   1.907   1_455  S
O578       Ni585   1.913       .  S
O579      Ni1353   1.918   1_455  S
O579        C589   1.282       .  A
O580        C590   1.280       .  A
O581      Ni1354   1.919       .  S
O583       Ni970   1.910       .  S
O583        C588   1.280   1_556  A
O584       Ni586   1.918       .  S
O584        C587   1.281       .  A
Ni585       O961   1.907   1_565  S
Ni585      O1347   1.918       .  S
Ni585      Ni778   2.390       .  S
Ni586      O1349   1.918   1_455  S
Ni586       O967   1.910   1_455  S
Ni586      Ni777   2.390   1_456  S
C587        C756   1.481       .  S
C589        C717   1.472       .  S
O591       Ni599   1.921   1_565  S
O591        C601   1.282       .  A
O592       Ni983   1.913   1_455  S
O592        C602   1.280       .  A
O593        C603   1.279       .  A
O594      Ni1367   1.917   1_465  S
O594        C604   1.281       .  A
O595        C604   1.281       .  A
O596      Ni1368   1.916       .  S
O596        C603   1.281       .  A
O597       Ni600   1.918       .  S
O597        C602   1.281       .  A
O598       Ni984   1.911       .  S
O598        C601   1.282       .  A
Ni599       O976   1.912       .  S
Ni599      O1362   1.916   1_545  S
Ni599      Ni984   2.389   1_545  S
Ni600      O1364   1.916   1_455  S
Ni600       O982   1.912   1_455  S
Ni600      Ni983   2.389   1_455  S
C601        C675   1.484       .  S
C602        C700   1.474       .  S
C603        C689   1.470       .  S
C604        C658   1.479       .  S
O605       Ni611   1.920       .  S
O605        C626   1.267       .  A
O606       Ni629   1.917       .  S
O607        H630   0.972   1_554  S
O607       Ni623   1.912   1_554  S
C608        O625   1.275       .  A
C608        O617   1.276       .  A
C608        C759   1.473       .  S
O609       Ni628   1.924       .  S
O609        C615   1.268       .  A
O610       Ni628   1.905       .  S
O610        C612   1.266       .  A
Ni611       O614   1.911       .  S
Ni611       O616   1.902       .  S
C612        O622   1.272       .  A
C612        C644   1.474       .  S
O613       Ni629   1.921       .  S
O613        C619   1.276       .  A
O614        C619   1.275       .  A
C615        C742   1.491       .  S
O616        C618   1.267       .  A
O617       Ni628   1.921       .  S
C618        O624   1.273       .  A
C618        C638   1.470       .  S
C619        C731   1.485       .  S
H620        O621   0.965       .  S
O621       Ni629   1.912       .  S
O622       Ni623   1.931       .  S
Ni623       O627   1.915       .  S
Ni623       O625   1.915       .  S
O624       Ni629   1.929       .  S
C626        C714   1.484       .  S
O631       Ni637   1.927       .  S
O631        C652   1.272       .  A
O632       Ni655   1.911       .  S
O632        C641   1.267       .  A
O633        H656   0.971       .  S
O633       Ni637   1.910       .  S
O633       Ni655   1.904       .  S
O633       Ni649   1.915       .  S
C634        O651   1.278       .  A
C634        O643   1.278       .  A
C634        C703   1.490       .  S
O635       Ni654   1.924       .  S
O635        C641   1.269       .  A
O636       Ni654   1.903       .  S
O636        C638   1.266       .  A
Ni637       O640   1.930       .  S
Ni637       O642   1.906       .  S
C638        O648   1.271       .  A
O639       Ni655   1.914       .  S
O639        C645   1.275       .  A
O640        C645   1.278       .  A
C641        C686   1.483       .  S
O642        C644   1.267       .  A
O643       Ni654   1.924       .  S
C644        O650   1.273       .  A
C645        C672   1.480       .  S
H646        O647   0.970       .  S
O647       Ni655   1.915       .  S
O647       Ni649   1.906       .  S
O647       Ni654   1.910       .  S
O648       Ni649   1.926       .  S
Ni649       O653   1.910       .  S
Ni649       O651   1.924       .  S
O650       Ni655   1.932       .  S
C652        O653   1.268       .  A
C652        C661   1.489       .  S
C657        C658   1.404       .  A
C657        C662   1.402       .  A
C657        H664   1.084       .  S
C658        C659   1.410       .  A
C659        C660   1.397       .  A
C659        N666   1.430       .  S
C660        C661   1.409       .  A
C660        H665   1.084       .  S
C661        C662   1.417       .  A
C662        N663   1.430       .  S
N663        O667   1.261       .  A
N663        O668   1.262       .  A
N666        O670   1.261       .  A
N666        O669   1.262       .  A
C671        C672   1.404       .  A
C671        C676   1.402       .  A
C671        H678   1.084       .  S
C672        C673   1.411       .  A
C673        C674   1.399       .  A
C673        N680   1.429       .  S
C674        C675   1.405       .  A
C674        H679   1.084       .  S
C675        C676   1.414       .  A
C676        N677   1.429       .  S
N677        O681   1.262       .  A
N677        O682   1.262       .  A
N680        O684   1.261       .  A
N680        O683   1.262       .  A
C685        C686   1.407       .  A
C685        C690   1.395       .  A
C685        H692   1.084       .  S
C686        C687   1.414       .  A
C687        C688   1.401       .  A
C687        N694   1.429       .  S
C688        C689   1.403       .  A
C688        H693   1.084       .  S
C689        C690   1.407       .  A
C690        N691   1.431       .  S
N691        O695   1.262       .  A
N691        O696   1.262       .  A
N694        O698   1.261       .  A
N694        O697   1.261       .  A
C699        C700   1.401       .  A
C699        C704   1.401       .  A
C699        H706   1.084       .  S
C700        C701   1.408       .  A
C701        C702   1.400       .  A
C701        N708   1.430       .  S
C702        C703   1.410       .  A
C702        H707   1.084       .  S
C703        C704   1.416       .  A
C704        N705   1.428       .  S
N705        O709   1.261       .  A
N705        O710   1.262       .  A
N708        O712   1.262       .  A
N708        O711   1.262       .  A
C713        C714   1.407       .  A
C713        C718   1.405       .  A
C713        H720   1.084       .  S
C714        C715   1.416       .  A
C715        C716   1.395       .  A
C715        N722   1.430       .  S
C716        C717   1.398       .  A
C716        H721   1.085       .  S
C717        C718   1.411       .  A
N719        O723   1.261       .  A
N722        O726   1.261       .  A
C727        C728   1.401       .  A
C727        C732   1.401       .  A
C727        H734   1.084       .  S
C729        C730   1.394       .  A
C729        N736   1.430       .  S
C730        H735   1.084       .  S
C731        C732   1.415       .  A
C732        N733   1.429       .  S
N733        O737   1.262       .  A
N733        O738   1.262       .  A
N736        O740   1.262       .  A
N736        O739   1.262       .  A
C741        C746   1.405       .  A
C741        H748   1.084       .  S
C742        C743   1.419       .  A
C743        C744   1.396       .  A
C743        N750   1.430       .  S
C744        C745   1.399       .  A
C744        H749   1.084       .  S
C746        N747   1.430       .  S
N747        O751   1.262       .  A
N747        O752   1.262       .  A
N750        O754   1.262       .  A
N750        O753   1.262       .  A
C755        C760   1.398       .  A
C755        H762   1.084       .  S
C756        C757   1.414       .  A
C757        C758   1.398       .  A
C757        N764   1.429       .  S
C758        C759   1.403       .  A
C758        H763   1.084       .  S
C760        N761   1.429       .  S
N761        O765   1.262       .  A
N764        O768   1.262       .  A
O769        C971   1.281   1_554  A
O770       Ni777   1.914       .  S
O770        C972   1.280       .  A
O771        C781   1.282       .  A
O772      Ni1161   1.918   1_545  S
O772        C782   1.280   1_554  A
O773        C974   1.283       .  A
O774      Ni1162   1.918       .  S
O774        C973   1.280       .  A
O775        C780   1.279       .  A
O776       Ni778   1.918   1_545  S
O776        C779   1.281       .  A
Ni777      O1156   1.918       .  S
Ni778      O1158   1.918       .  S
C779        O961   1.281       .  A
C779        C948   1.480       .  S
C780        O962   1.280       .  A
C780       C1112   1.466       .  S
C781        O966   1.280   1_554  A
C781        C909   1.473       .  S
C782        O965   1.283       .  A
C782       C1129   1.479       .  S
O783       Ni791   1.920       .  S
O783        C793   1.282       .  A
O784        C794   1.280       .  A
O785      Ni1175   1.910       .  S
O785        C795   1.279       .  A
O786        C796   1.281       .  A
O787      Ni1176   1.913       .  S
O787        C796   1.281       .  A
O788        C795   1.281       .  A
O789       Ni792   1.918   1_545  S
O789        C794   1.281       .  A
O790        C793   1.282       .  A
Ni791      O1169   1.910       .  S
Ni792      O1171   1.913       .  S
C793        C867   1.484       .  S
C794        C892   1.473       .  S
C795        C881   1.470       .  S
C796        C850   1.480       .  S
O797       Ni803   1.919       .  S
O797        C818   1.267       .  A
O798       Ni821   1.917       .  S
O798        C999   1.270   1_554  A
O799        H822   0.972       .  S
O799       Ni995   1.911       .  S
O799      Ni1013   1.912       .  S
O799       Ni815   1.912       .  S
C800        O817   1.275       .  A
C800        O809   1.276       .  A
C800        C951   1.474       .  S
O801       Ni820   1.923       .  S
O801        C807   1.268       .  A
O802       Ni820   1.904       .  S
O802        C804   1.266       .  A
Ni803       O806   1.911       .  S
Ni803       O808   1.902       .  S
Ni803       O991   1.911       .  S
C804        O814   1.272       .  A
C804        C836   1.474       .  S
O805       Ni821   1.921       .  S
O805        C811   1.276       .  A
O806        C811   1.275       .  A
C807        O990   1.270       .  A
C807        C934   1.490       .  S
O808        C810   1.266       .  A
O809       Ni820   1.920       .  S
C810        O816   1.272       .  A
C810        C830   1.469       .  S
C811        C923   1.486       .  S
H812        O813   0.965       .  S
O813       Ni821   1.912       .  S
O813      Ni1007   1.909   1_554  S
O813      Ni1012   1.911   1_554  S
O814       Ni815   1.932       .  S
Ni815       O819   1.915       .  S
Ni815       O817   1.915       .  S
Ni815      O1005   1.908       .  S
O816       Ni821   1.928       .  S
C818       O1011   1.269   1_554  A
C818        C906   1.484       .  S
O819       C1010   1.268       .  A
Ni820      O1005   1.911       .  S
Ni821       O991   1.912       .  S
O823       Ni829   1.928       .  S
O823        C844   1.272       .  A
O824       Ni847   1.911       .  S
O824        C833   1.267       .  A
O825        H848   0.971       .  S
O825       Ni829   1.909       .  S
O825       Ni847   1.904       .  S
O825       Ni841   1.914       .  S
C826        O843   1.277       .  A
C826        O835   1.278       .  A
C826        C895   1.489       .  S
O827       Ni846   1.924       .  S
O827        C833   1.269       .  A
O828       Ni846   1.903       .  S
O828        C830   1.266       .  A
Ni829       O832   1.930       .  S
Ni829       O834   1.907       .  S
C830        O840   1.271       .  A
O831       Ni847   1.914       .  S
O831        C837   1.275       .  A
O832        C837   1.278       .  A
C833        C878   1.483       .  S
O834        C836   1.267       .  A
O835       Ni846   1.924       .  S
C836        O842   1.273       .  A
C837        C864   1.480       .  S
H838        O839   0.970       .  S
O839       Ni847   1.915       .  S
O839       Ni841   1.906       .  S
O839       Ni846   1.910       .  S
O840       Ni841   1.925       .  S
Ni841       O845   1.910       .  S
Ni841       O843   1.923       .  S
O842       Ni847   1.932       .  S
C844        O845   1.267       .  A
C844        C853   1.489       .  S
C849        C850   1.404       .  A
C849        C854   1.402       .  A
C849        H856   1.084       .  S
C850        C851   1.410       .  A
C851        C852   1.397       .  A
C851        N858   1.430       .  S
C852        C853   1.408       .  A
C852        H857   1.084       .  S
C853        C854   1.417       .  A
C854        N855   1.430       .  S
N855        O859   1.261       .  A
N855        O860   1.262       .  A
N858        O862   1.261       .  A
N858        O861   1.262       .  A
C863        C864   1.404       .  A
C863        C868   1.401       .  A
C863        H870   1.084       .  S
C864        C865   1.412       .  A
C865        C866   1.399       .  A
C865        N872   1.429       .  S
C866        C867   1.405       .  A
C866        H871   1.084       .  S
C867        C868   1.414       .  A
C868        N869   1.429       .  S
N869        O873   1.262       .  A
N869        O874   1.262       .  A
N872        O876   1.261       .  A
N872        O875   1.262       .  A
C877        C878   1.407       .  A
C877        C882   1.395       .  A
C877        H884   1.084       .  S
C878        C879   1.414       .  A
C879        C880   1.401       .  A
C879        N886   1.429       .  S
C880        C881   1.403       .  A
C880        H885   1.084       .  S
C881        C882   1.407       .  A
C882        N883   1.431       .  S
N883        O887   1.262       .  A
N883        O888   1.262       .  A
N886        O890   1.261       .  A
N886        O889   1.261       .  A
C891        C892   1.400       .  A
C891        C896   1.400       .  A
C891        H898   1.084       .  S
C892        C893   1.408       .  A
C893        C894   1.400       .  A
C893        N900   1.430       .  S
C894        C895   1.410       .  A
C894        H899   1.084       .  S
C895        C896   1.415       .  A
C896        N897   1.428       .  S
N897        O901   1.261       .  A
N897        O902   1.262       .  A
N900        O904   1.262       .  A
N900        O903   1.262       .  A
C905        C906   1.407   1_556  A
C905        C910   1.405       .  A
C905        H912   1.084       .  S
C906        C907   1.416       .  A
C907        C908   1.395       .  A
C907        N914   1.430       .  S
C908        C909   1.398       .  A
C908        H913   1.085       .  S
C909        C910   1.411   1_554  A
C910       N1103   1.429       .  S
N911       C1102   1.429       .  S
N911        O915   1.261       .  A
N911       O1108   1.262       .  A
N914        O918   1.261       .  A
N914       O1109   1.262       .  A
O916       N1103   1.262       .  A
O917       N1106   1.262       .  A
C919        C920   1.401   1_556  A
C919        C924   1.401       .  A
C919        H926   1.084       .  S
C920        C972   1.466       .  S
C920       C1113   1.405       .  A
C921       C1112   1.404       .  A
C921        C922   1.394       .  A
C921        N928   1.430       .  S
C922       C1115   1.410       .  A
C922        H927   1.084       .  S
C923       C1114   1.410       .  A
C923        C924   1.415   1_554  A
C924        N925   1.428       .  S
N925        O929   1.262       .  A
N925        O930   1.262       .  A
N928        O932   1.262       .  A
N928        O931   1.262       .  A
C933       C1126   1.408   1_554  A
C933        C938   1.405       .  A
C933        H940   1.084       .  S
C934       C1125   1.407       .  A
C934        C935   1.419       .  A
C935        C936   1.396       .  A
C935        N942   1.430       .  S
C936        C937   1.399       .  A
C936        H941   1.084       .  S
C937        C974   1.479       .  S
C937       C1130   1.412       .  A
C938       C1129   1.412   1_554  A
C938        N939   1.430       .  S
N939        O943   1.262       .  A
N939        O944   1.262       .  A
N942        O946   1.262       .  A
N942        O945   1.262       .  A
C947       C1140   1.407   1_554  A
C947        C952   1.398       .  A
C947        H954   1.084       .  S
C948       C1139   1.406       .  A
C948        C949   1.413       .  A
C949        C950   1.398       .  A
C949        N956   1.429       .  S
C950        C951   1.403       .  A
C950        H955   1.084       .  S
C951       C1144   1.409       .  A
C952       C1143   1.409   1_554  A
C952        N953   1.429       .  S
N953        O957   1.262       .  A
N953       O1150   1.262       .  A
N956        O960   1.262       .  A
N956       O1151   1.262       .  A
O958       N1145   1.262       .  A
O959       N1148   1.262       .  A
O962       Ni969   1.913       .  S
O963        C973   1.282       .  A
O964      Ni1353   1.918   1_545  S
O964        C974   1.280       .  A
O966      Ni1354   1.918       .  S
O967        C972   1.279   1_556  A
O968       Ni970   1.918   1_545  S
O968        C971   1.281       .  A
Ni969      O1348   1.918       .  S
Ni970      O1350   1.918       .  S
C971       C1140   1.480       .  S
C973       C1101   1.472       .  S
O975       Ni983   1.921       .  S
O975        C985   1.282       .  A
O976        C986   1.280       .  A
O977      Ni1367   1.910       .  S
O977        C987   1.279       .  A
O978        C988   1.281       .  A
O979      Ni1368   1.913       .  S
O979        C988   1.281       .  A
O980        C987   1.281       .  A
O981       Ni984   1.918   1_545  S
O981        C986   1.281       .  A
O982        C985   1.282       .  A
Ni983      O1361   1.910       .  S
Ni984      O1363   1.913       .  S
C985       C1059   1.484       .  S
C986       C1084   1.473       .  S
C987       C1073   1.470       .  S
C988       C1042   1.480       .  S
O989       Ni995   1.919       .  S
O989       C1010   1.267       .  A
O990      Ni1013   1.916       .  S
O991       H1014   0.972   1_554  S
O991      Ni1007   1.912   1_554  S
C992       O1009   1.275       .  A
C992       O1001   1.276       .  A
C992       C1143   1.473       .  S
O993      Ni1012   1.923       .  S
O993        C999   1.268       .  A
O994      Ni1012   1.904       .  S
O994        C996   1.266       .  A
Ni995       O998   1.911       .  S
Ni995      O1000   1.902       .  S
C996       O1006   1.272       .  A
C996       C1028   1.474       .  S
O997      Ni1013   1.921       .  S
O997       C1003   1.276       .  A
O998       C1003   1.275       .  A
C999       C1126   1.490       .  S
O1000      C1002   1.266       .  A
O1001     Ni1012   1.921       .  S
C1002      O1008   1.272       .  A
C1002      C1022   1.469       .  S
C1003      C1115   1.486       .  S
H1004      O1005   0.965       .  S
O1005     Ni1013   1.912       .  S
O1006     Ni1007   1.931       .  S
Ni1007     O1011   1.916       .  S
Ni1007     O1009   1.915       .  S
O1008     Ni1013   1.928       .  S
C1010      C1098   1.484       .  S
O1015     Ni1021   1.927       .  S
O1015      C1036   1.272       .  A
O1016     Ni1039   1.910       .  S
O1016      C1025   1.267       .  A
O1017      H1040   0.971       .  S
O1017     Ni1021   1.910       .  S
O1017     Ni1039   1.904       .  S
O1017     Ni1033   1.914       .  S
C1018      O1035   1.277       .  A
C1018      O1027   1.278       .  A
C1018      C1087   1.490       .  S
O1019     Ni1038   1.924       .  S
O1019      C1025   1.269       .  A
O1020     Ni1038   1.903       .  S
O1020      C1022   1.266       .  A
Ni1021     O1024   1.930       .  S
Ni1021     O1026   1.907       .  S
C1022      O1032   1.271       .  A
O1023     Ni1039   1.914       .  S
O1023      C1029   1.275       .  A
O1024      C1029   1.278       .  A
C1025      C1070   1.483       .  S
O1026      C1028   1.267       .  A
O1027     Ni1038   1.924       .  S
C1028      O1034   1.273       .  A
C1029      C1056   1.480       .  S
H1030      O1031   0.970       .  S
O1031     Ni1039   1.915       .  S
O1031     Ni1033   1.906       .  S
O1031     Ni1038   1.910       .  S
O1032     Ni1033   1.925       .  S
Ni1033     O1037   1.910       .  S
Ni1033     O1035   1.923       .  S
O1034     Ni1039   1.931       .  S
C1036      O1037   1.268       .  A
C1036      C1045   1.489       .  S
C1041      C1042   1.404       .  A
C1041      C1046   1.402       .  A
C1041      H1048   1.084       .  S
C1042      C1043   1.410       .  A
C1043      C1044   1.397       .  A
C1043      N1050   1.430       .  S
C1044      C1045   1.408       .  A
C1044      H1049   1.084       .  S
C1045      C1046   1.417       .  A
C1046      N1047   1.430       .  S
N1047      O1051   1.262       .  A
N1047      O1052   1.262       .  A
N1050      O1054   1.261       .  A
N1050      O1053   1.262       .  A
C1055      C1056   1.404       .  A
C1055      C1060   1.402       .  A
C1055      H1062   1.084       .  S
C1056      C1057   1.411       .  A
C1057      C1058   1.399       .  A
C1057      N1064   1.429       .  S
C1058      C1059   1.405       .  A
C1058      H1063   1.084       .  S
C1059      C1060   1.414       .  A
C1060      N1061   1.429       .  S
N1061      O1065   1.262       .  A
N1061      O1066   1.262       .  A
N1064      O1068   1.261       .  A
N1064      O1067   1.262       .  A
C1069      C1070   1.407       .  A
C1069      C1074   1.395       .  A
C1069      H1076   1.084       .  S
C1070      C1071   1.414       .  A
C1071      C1072   1.401       .  A
C1071      N1078   1.429       .  S
C1072      C1073   1.402       .  A
C1072      H1077   1.084       .  S
C1073      C1074   1.407       .  A
C1074      N1075   1.431       .  S
N1075      O1079   1.262       .  A
N1075      O1080   1.262       .  A
N1078      O1082   1.261       .  A
N1078      O1081   1.261       .  A
C1083      C1084   1.400       .  A
C1083      C1088   1.400       .  A
C1083      H1090   1.084       .  S
C1084      C1085   1.407       .  A
C1085      C1086   1.400       .  A
C1085      N1092   1.430       .  S
C1086      C1087   1.410       .  A
C1086      H1091   1.084       .  S
C1087      C1088   1.416       .  A
C1088      N1089   1.428       .  S
N1089      O1093   1.261       .  A
N1089      O1094   1.262       .  A
N1092      O1096   1.262       .  A
N1092      O1095   1.262       .  A
C1097      C1098   1.407       .  A
C1097      C1102   1.405       .  A
C1097      H1104   1.084       .  S
C1098      C1099   1.416       .  A
C1099      C1100   1.395       .  A
C1099      N1106   1.430       .  S
C1100      C1101   1.398       .  A
C1100      H1105   1.085       .  S
C1101      C1102   1.411       .  A
N1103      O1107   1.261       .  A
N1106      O1110   1.262       .  A
C1111      C1112   1.401       .  A
C1111      C1116   1.401       .  A
C1111      H1118   1.084       .  S
C1113      C1114   1.394       .  A
C1113      N1120   1.430       .  S
C1114      H1119   1.084       .  S
C1115      C1116   1.415       .  A
C1116      N1117   1.428       .  S
N1117      O1121   1.262       .  A
N1117      O1122   1.262       .  A
N1120      O1124   1.262       .  A
N1120      O1123   1.262       .  A
C1125      C1130   1.404       .  A
C1125      H1132   1.084       .  S
C1126      C1127   1.419       .  A
C1127      C1128   1.396       .  A
C1127      N1134   1.430       .  S
C1128      C1129   1.399       .  A
C1128      H1133   1.084       .  S
C1130      N1131   1.430       .  S
N1131      O1135   1.262       .  A
N1131      O1136   1.262       .  A
N1134      O1138   1.262       .  A
N1134      O1137   1.262       .  A
C1139      C1144   1.398       .  A
C1139      H1146   1.084       .  S
C1140      C1141   1.413       .  A
C1141      C1142   1.398       .  A
C1141      N1148   1.429       .  S
C1142      C1143   1.403       .  A
C1142      H1147   1.084       .  S
C1144      N1145   1.429       .  S
N1145      O1149   1.262       .  A
N1148      O1152   1.262       .  A
O1153      C1355   1.281   1_554  A
O1154     Ni1161   1.914       .  S
O1154      C1356   1.280       .  A
O1155      C1165   1.282       .  A
O1156      C1166   1.280   1_554  A
O1157      C1358   1.283       .  A
O1158      C1357   1.280       .  A
O1159      C1164   1.279       .  A
O1160     Ni1162   1.918       .  S
O1160      C1163   1.281       .  A
C1163      O1345   1.281       .  A
C1163      C1332   1.481       .  S
C1164      O1346   1.280       .  A
C1164      C1496   1.466       .  S
C1165      O1350   1.280   1_554  A
C1165      C1293   1.473       .  S
C1166      O1349   1.283       .  A
C1166      C1513   1.479       .  S
O1167     Ni1175   1.920   1_565  S
O1167      C1177   1.282       .  A
O1168      C1178   1.280       .  A
O1169      C1179   1.279       .  A
O1170      C1180   1.281       .  A
O1171      C1180   1.281       .  A
O1172      C1179   1.281       .  A
O1173     Ni1176   1.918       .  S
O1173      C1178   1.281       .  A
O1174      C1177   1.282       .  A
C1177      C1251   1.484       .  S
C1178      C1276   1.473       .  S
C1179      C1265   1.470       .  S
C1180      C1234   1.479       .  S
O1181     Ni1187   1.920       .  S
O1181      C1202   1.267       .  A
O1182     Ni1205   1.917       .  S
O1182      C1383   1.270   1_554  A
O1183      H1206   0.972       .  S
O1183     Ni1379   1.911       .  S
O1183     Ni1397   1.912       .  S
O1183     Ni1199   1.912       .  S
C1184      O1201   1.275       .  A
C1184      O1193   1.276       .  A
C1184      C1335   1.473       .  S
O1185     Ni1204   1.923       .  S
O1185      C1191   1.268       .  A
O1186     Ni1204   1.904       .  S
O1186      C1188   1.266       .  A
Ni1187     O1190   1.911       .  S
Ni1187     O1192   1.902       .  S
Ni1187     O1375   1.911   1_554  S
C1188      O1198   1.272       .  A
C1188      C1220   1.474       .  S
O1189     Ni1205   1.921       .  S
O1189      C1195   1.276       .  A
O1190      C1195   1.275       .  A
C1191      O1374   1.270       .  A
C1191      C1318   1.490       .  S
O1192      C1194   1.266       .  A
O1193     Ni1204   1.921       .  S
C1194      O1200   1.272       .  A
C1194      C1214   1.469       .  S
C1195      C1307   1.486       .  S
H1196      O1197   0.965       .  S
O1197     Ni1205   1.912       .  S
O1197     Ni1391   1.908   1_554  S
O1197     Ni1396   1.911   1_554  S
O1198     Ni1199   1.931       .  S
Ni1199     O1203   1.915       .  S
Ni1199     O1201   1.915       .  S
Ni1199     O1389   1.908       .  S
O1200     Ni1205   1.928       .  S
C1202      O1395   1.269   1_554  A
C1202      C1290   1.484       .  S
O1203      C1394   1.268       .  A
Ni1204     O1389   1.911       .  S
Ni1205     O1375   1.912   1_554  S
O1207     Ni1213   1.928       .  S
O1207      C1228   1.272       .  A
O1208     Ni1231   1.910       .  S
O1208      C1217   1.267       .  A
O1209      H1232   0.971       .  S
O1209     Ni1213   1.910       .  S
O1209     Ni1231   1.904       .  S
O1209     Ni1225   1.914       .  S
C1210      O1227   1.277       .  A
C1210      O1219   1.278       .  A
C1210      C1279   1.489       .  S
O1211     Ni1230   1.924       .  S
O1211      C1217   1.269       .  A
O1212     Ni1230   1.903       .  S
O1212      C1214   1.266       .  A
Ni1213     O1216   1.930       .  S
Ni1213     O1218   1.907       .  S
C1214      O1224   1.271       .  A
O1215     Ni1231   1.914       .  S
O1215      C1221   1.275       .  A
O1216      C1221   1.278       .  A
C1217      C1262   1.483       .  S
O1218      C1220   1.267       .  A
O1219     Ni1230   1.924       .  S
C1220      O1226   1.273       .  A
C1221      C1248   1.480       .  S
H1222      O1223   0.970       .  S
O1223     Ni1231   1.915       .  S
O1223     Ni1225   1.906       .  S
O1223     Ni1230   1.910       .  S
O1224     Ni1225   1.925       .  S
Ni1225     O1229   1.909       .  S
Ni1225     O1227   1.923       .  S
O1226     Ni1231   1.932       .  S
C1228      O1229   1.267       .  A
C1228      C1237   1.489       .  S
C1233      C1234   1.404       .  A
C1233      C1238   1.402       .  A
C1233      H1240   1.084       .  S
C1234      C1235   1.410       .  A
C1235      C1236   1.397       .  A
C1235      N1242   1.430       .  S
C1236      C1237   1.408       .  A
C1236      H1241   1.084       .  S
C1237      C1238   1.417       .  A
C1238      N1239   1.430       .  S
N1239      O1243   1.261       .  A
N1239      O1244   1.262       .  A
N1242      O1246   1.261       .  A
N1242      O1245   1.262       .  A
C1247      C1248   1.404       .  A
C1247      C1252   1.401       .  A
C1247      H1254   1.084       .  S
C1248      C1249   1.411       .  A
C1249      C1250   1.399       .  A
C1249      N1256   1.429       .  S
C1250      C1251   1.405       .  A
C1250      H1255   1.084       .  S
C1251      C1252   1.414       .  A
C1252      N1253   1.429       .  S
N1253      O1257   1.262       .  A
N1253      O1258   1.262       .  A
N1256      O1260   1.261       .  A
N1256      O1259   1.262       .  A
C1261      C1262   1.407       .  A
C1261      C1266   1.395       .  A
C1261      H1268   1.084       .  S
C1262      C1263   1.414       .  A
C1263      C1264   1.401       .  A
C1263      N1270   1.429       .  S
C1264      C1265   1.402       .  A
C1264      H1269   1.084       .  S
C1265      C1266   1.407       .  A
C1266      N1267   1.431       .  S
N1267      O1271   1.262       .  A
N1267      O1272   1.262       .  A
N1270      O1274   1.261       .  A
N1270      O1273   1.261       .  A
C1275      C1276   1.401       .  A
C1275      C1280   1.400       .  A
C1275      H1282   1.084       .  S
C1276      C1277   1.408       .  A
C1277      C1278   1.400       .  A
C1277      N1284   1.430       .  S
C1278      C1279   1.410       .  A
C1278      H1283   1.084       .  S
C1279      C1280   1.415       .  A
C1280      N1281   1.428       .  S
N1281      O1285   1.261       .  A
N1281      O1286   1.262       .  A
N1284      O1288   1.262       .  A
N1284      O1287   1.262       .  A
C1289      C1290   1.407   1_556  A
C1289      C1294   1.405       .  A
C1289      H1296   1.084       .  S
C1290      C1291   1.416       .  A
C1291      C1292   1.395       .  A
C1291      N1298   1.430       .  S
C1292      C1293   1.398       .  A
C1292      H1297   1.085       .  S
C1293      C1294   1.411   1_554  A
C1294      N1487   1.429       .  S
N1295      C1486   1.429       .  S
N1295      O1299   1.261       .  A
N1295      O1492   1.262       .  A
N1298      O1302   1.261       .  A
N1298      O1493   1.262       .  A
O1300      N1487   1.262       .  A
O1301      N1490   1.262       .  A
C1303      C1304   1.401   1_556  A
C1303      C1308   1.401       .  A
C1303      H1310   1.084       .  S
C1304      C1356   1.466       .  S
C1304      C1497   1.405       .  A
C1305      C1496   1.404       .  A
C1305      C1306   1.394       .  A
C1305      N1312   1.430       .  S
C1306      C1499   1.410       .  A
C1306      H1311   1.084       .  S
C1307      C1498   1.410       .  A
C1307      C1308   1.415   1_554  A
C1308      N1309   1.429       .  S
N1309      O1313   1.262       .  A
N1309      O1314   1.262       .  A
N1312      O1316   1.262       .  A
N1312      O1315   1.262       .  A
C1317      C1510   1.408   1_554  A
C1317      C1322   1.405       .  A
C1317      H1324   1.084       .  S
C1318      C1509   1.408       .  A
C1318      C1319   1.419       .  A
C1319      C1320   1.396       .  A
C1319      N1326   1.430       .  S
C1320      C1321   1.399       .  A
C1320      H1325   1.084       .  S
C1321      C1358   1.479       .  S
C1321      C1514   1.412       .  A
C1322      C1513   1.412   1_554  A
C1322      N1323   1.430       .  S
N1323      O1327   1.262       .  A
N1323      O1328   1.262       .  A
N1326      O1330   1.262       .  A
N1326      O1329   1.262       .  A
C1331      C1524   1.406   1_554  A
C1331      C1336   1.398       .  A
C1331      H1338   1.084       .  S
C1332      C1523   1.407       .  A
C1332      C1333   1.413       .  A
C1333      C1334   1.398       .  A
C1333      N1340   1.429       .  S
C1334      C1335   1.403       .  A
C1334      H1339   1.084       .  S
C1335      C1528   1.409       .  A
C1336      C1527   1.409   1_554  A
C1336      N1337   1.429       .  S
N1337      O1341   1.262       .  A
N1337      O1534   1.262       .  A
N1340      O1344   1.262       .  A
N1340      O1535   1.262       .  A
O1342      N1529   1.262       .  A
O1343      N1532   1.262       .  A
O1346     Ni1353   1.914       .  S
O1347      C1357   1.282       .  A
O1348      C1358   1.280       .  A
O1351      C1356   1.279   1_556  A
O1352     Ni1354   1.918       .  S
O1352      C1355   1.281       .  A
C1355      C1524   1.480       .  S
C1357      C1485   1.472       .  S
O1359     Ni1367   1.921   1_565  S
O1359      C1369   1.282       .  A
O1360      C1370   1.280       .  A
O1361      C1371   1.279       .  A
O1362      C1372   1.281       .  A
O1363      C1372   1.281       .  A
O1364      C1371   1.281       .  A
O1365     Ni1368   1.917       .  S
O1365      C1370   1.281       .  A
O1366      C1369   1.282       .  A
C1369      C1443   1.484       .  S
C1370      C1468   1.473       .  S
C1371      C1457   1.470       .  S
C1372      C1426   1.480       .  S
O1373     Ni1379   1.919       .  S
O1373      C1394   1.267       .  A
O1374     Ni1397   1.916       .  S
O1375      H1398   0.972       .  S
O1375     Ni1391   1.912       .  S
C1376      O1393   1.275       .  A
C1376      O1385   1.276       .  A
C1376      C1527   1.474       .  S
O1377     Ni1396   1.923       .  S
O1377      C1383   1.268       .  A
O1378     Ni1396   1.904       .  S
O1378      C1380   1.266       .  A
Ni1379     O1382   1.911       .  S
Ni1379     O1384   1.902       .  S
C1380      O1390   1.272       .  A
C1380      C1412   1.474       .  S
O1381     Ni1397   1.921       .  S
O1381      C1387   1.276       .  A
O1382      C1387   1.275       .  A
C1383      C1510   1.490       .  S
O1384      C1386   1.266       .  A
O1385     Ni1396   1.920       .  S
C1386      O1392   1.272       .  A
C1386      C1406   1.469       .  S
C1387      C1499   1.486       .  S
H1388      O1389   0.965       .  S
O1389     Ni1397   1.912       .  S
O1390     Ni1391   1.932       .  S
Ni1391     O1395   1.916       .  S
Ni1391     O1393   1.915       .  S
O1392     Ni1397   1.928       .  S
C1394      C1482   1.484       .  S
O1399     Ni1405   1.928       .  S
O1399      C1420   1.272       .  A
O1400     Ni1423   1.911       .  S
O1400      C1409   1.267       .  A
O1401      H1424   0.971       .  S
O1401     Ni1405   1.910       .  S
O1401     Ni1423   1.904       .  S
O1401     Ni1417   1.914       .  S
C1402      O1419   1.277       .  A
C1402      O1411   1.278       .  A
C1402      C1471   1.489       .  S
O1403     Ni1422   1.924       .  S
O1403      C1409   1.269       .  A
O1404     Ni1422   1.903       .  S
O1404      C1406   1.266       .  A
Ni1405     O1408   1.930       .  S
Ni1405     O1410   1.907       .  S
C1406      O1416   1.271       .  A
O1407     Ni1423   1.914       .  S
O1407      C1413   1.275       .  A
O1408      C1413   1.278       .  A
C1409      C1454   1.483       .  S
O1410      C1412   1.267       .  A
O1411     Ni1422   1.924       .  S
C1412      O1418   1.273       .  A
C1413      C1440   1.480       .  S
H1414      O1415   0.970       .  S
O1415     Ni1423   1.915       .  S
O1415     Ni1417   1.906       .  S
O1415     Ni1422   1.910       .  S
O1416     Ni1417   1.925       .  S
Ni1417     O1421   1.910       .  S
Ni1417     O1419   1.923       .  S
O1418     Ni1423   1.932       .  S
C1420      O1421   1.267       .  A
C1420      C1429   1.490       .  S
C1425      C1426   1.404       .  A
C1425      C1430   1.402       .  A
C1425      H1432   1.084       .  S
C1426      C1427   1.410       .  A
C1427      C1428   1.397       .  A
C1427      N1434   1.430       .  S
C1428      C1429   1.408       .  A
C1428      H1433   1.084       .  S
C1429      C1430   1.417       .  A
C1430      N1431   1.430       .  S
N1431      O1435   1.261       .  A
N1431      O1436   1.262       .  A
N1434      O1438   1.261       .  A
N1434      O1437   1.262       .  A
C1439      C1440   1.404       .  A
C1439      C1444   1.401       .  A
C1439      H1446   1.084       .  S
C1440      C1441   1.411       .  A
C1441      C1442   1.399       .  A
C1441      N1448   1.429       .  S
C1442      C1443   1.405       .  A
C1442      H1447   1.084       .  S
C1443      C1444   1.414       .  A
C1444      N1445   1.429       .  S
N1445      O1449   1.262       .  A
N1445      O1450   1.262       .  A
N1448      O1452   1.261       .  A
N1448      O1451   1.262       .  A
C1453      C1454   1.407       .  A
C1453      C1458   1.396       .  A
C1453      H1460   1.084       .  S
C1454      C1455   1.414       .  A
C1455      C1456   1.401       .  A
C1455      N1462   1.429       .  S
C1456      C1457   1.402       .  A
C1456      H1461   1.084       .  S
C1457      C1458   1.407       .  A
C1458      N1459   1.431       .  S
N1459      O1463   1.262       .  A
N1459      O1464   1.262       .  A
N1462      O1466   1.261       .  A
N1462      O1465   1.261       .  A
C1467      C1468   1.400       .  A
C1467      C1472   1.400       .  A
C1467      H1474   1.084       .  S
C1468      C1469   1.408       .  A
C1469      C1470   1.400       .  A
C1469      N1476   1.430       .  S
C1470      C1471   1.410       .  A
C1470      H1475   1.084       .  S
C1471      C1472   1.415       .  A
C1472      N1473   1.428       .  S
N1473      O1477   1.261       .  A
N1473      O1478   1.262       .  A
N1476      O1480   1.262       .  A
N1476      O1479   1.262       .  A
C1481      C1482   1.407       .  A
C1481      C1486   1.405       .  A
C1481      H1488   1.084       .  S
C1482      C1483   1.416       .  A
C1483      C1484   1.395       .  A
C1483      N1490   1.430       .  S
C1484      C1485   1.398       .  A
C1484      H1489   1.085       .  S
C1485      C1486   1.411       .  A
N1487      O1491   1.261       .  A
N1490      O1494   1.262       .  A
C1495      C1496   1.401       .  A
C1495      C1500   1.401       .  A
C1495      H1502   1.084       .  S
C1497      C1498   1.394       .  A
C1497      N1504   1.430       .  S
C1498      H1503   1.084       .  S
C1499      C1500   1.415       .  A
C1500      N1501   1.428       .  S
N1501      O1505   1.262       .  A
N1501      O1506   1.262       .  A
N1504      O1508   1.262       .  A
N1504      O1507   1.262       .  A
C1509      C1514   1.404       .  A
C1509      H1516   1.084       .  S
C1510      C1511   1.419       .  A
C1511      C1512   1.396       .  A
C1511      N1518   1.430       .  S
C1512      C1513   1.399       .  A
C1512      H1517   1.084       .  S
C1514      N1515   1.430       .  S
N1515      O1519   1.262       .  A
N1515      O1520   1.262       .  A
N1518      O1522   1.262       .  A
N1518      O1521   1.262       .  A
C1523      C1528   1.398       .  A
C1523      H1530   1.084       .  S
C1524      C1525   1.413       .  A
C1525      C1526   1.398       .  A
C1525      N1532   1.429       .  S
C1526      C1527   1.403       .  A
C1526      H1531   1.084       .  S
C1528      N1529   1.429       .  S
N1529      O1533   1.262       .  A
N1532      O1536   1.262       .  A
