geometry optimzed in LAMMPS
_audit_creation_date              2020-11-30 
_audit_creation_method            'lammps2cif' 
_symmetry_space_group_name_H-M    'P1' 
_symmetry_Int_Tables_number       1 
_symmetry_cell_setting            triclinic 
loop_ 
_symmetry_equiv_pos_as_xyz 
  x,y,z 
_cell_length_a                    47.30932326 
_cell_length_b                    47.78813629222757 
_cell_length_c                    31.604990036276366 
_cell_angle_alpha                 89.70796462599363 
_cell_angle_beta                  89.44267561369975 
_cell_angle_gamma                 122.00455566379007 
loop_ 
_atom_site_label 
_atom_site_type_symbol 
_atom_site_fract_x 
_atom_site_fract_y 
_atom_site_fract_z 
_atom_site_charge 
O1          O  0.14797062  0.27065366  0.22569196    -0.85800
O2          O  0.19804187  0.32601724  0.18256260    -0.82900
C3          C  0.21774168  0.35594802  0.17195929     0.97600
O4          O  0.21982828  0.37869640  0.19467404    -0.82900
O5          O  0.16079189  0.37630501  0.18721339    -0.85500
C6          C  0.12942013  0.36216739  0.18563242     1.02200
O7          O  0.11046721  0.33879914  0.21086905    -0.78300
O8          O  0.11242794  0.28211369  0.20154291    -0.78500
C9          C  0.12471959  0.26423756  0.20124245     1.02100
O10         O  0.17327875  0.30011704  0.30283676    -0.85800
O11         O  0.22927515  0.35104424  0.26085131    -0.82900
C12         C  0.23442549  0.37257912  0.28744254     0.97700
O13         O  0.21606421  0.38445116  0.28711123    -0.82900
O14         O  0.15942512  0.38680953  0.27493096    -0.85500
C15         C  0.13636623  0.36970483  0.30143984     1.02100
O16         O  0.12059306  0.33847669  0.30073281    -0.78300
O17         O  0.11954437  0.27978916  0.29387204    -0.78500
C18         C  0.14314987  0.28058505  0.31401073     1.02100
Cr19       Cr  0.18528465  0.31379298  0.24296945     1.93700
Cr20       Cr  0.18717065  0.37807968  0.23666375     1.93200
Cr21       Cr  0.11931555  0.31158888  0.25114908     1.39100
O22         O  0.16355911  0.33462969  0.24376795    -1.23600
C23         C  0.18803517  0.11960516  0.15566633     0.86000
C24         C  0.20777624  0.12842774  0.11386991    -0.54200
C25         C  0.22670012  0.11478123  0.10876985     0.08900
C26         C  0.22483371  0.09374602  0.14715719     0.19900
C27         C  0.16831080  0.08157961  0.15608635    -0.54900
C28         C  0.18706886  0.06755799  0.15198870     0.09000
C29         C  0.21404332  0.12956334  0.18994494    -0.54500
C30         C  0.23383629  0.11674147  0.18555495     0.09600
H31         H  0.20373038  0.14100409  0.08808263     0.14100
H32         H  0.24143311  0.08407224  0.14425551    -0.00100
H33         H  0.14147940  0.06655522  0.15499838     0.14400
H34         H  0.21737625  0.14668880  0.21473592     0.14200
C35         C  0.38093269  0.30977920  0.35659681     0.86000
C36         C  0.37341131  0.29002743  0.39804644    -0.54200
C37         C  0.38879967  0.27271637  0.40212301     0.08900
C38         C  0.41062016  0.27625034  0.36305158     0.19900
C39         C  0.41906971  0.33116028  0.35378406    -0.54900
C40         C  0.43485498  0.31407853  0.35694926     0.09000
C41         C  0.37091523  0.28312587  0.32310299    -0.54500
C42         C  0.38639418  0.26560820  0.32558033     0.09600
H43         H  0.35713498  0.28972260  0.42274983     0.14100
H44         H  0.42308552  0.26215310  0.36610349    -0.00100
H45         H  0.43255300  0.35783642  0.35025484     0.14400
H46         H  0.35113030  0.27681352  0.30092799     0.14200
C47         C  0.20596993  0.13512497  0.38006710     0.86000
C48         C  0.23789716  0.15154499  0.35379897    -0.54200
C49         C  0.25659397  0.13798747  0.35817719     0.08900
C50         C  0.24170680  0.10856266  0.39008048     0.19900
C51         C  0.18766630  0.09792309  0.36830237    -0.54900
C52         C  0.20617546  0.08354300  0.37403947     0.09000
C53         C  0.21661913  0.13541961  0.42559916    -0.54500
C54         C  0.23516814  0.12165214  0.43153078     0.09600
H55         H  0.24391242  0.17098761  0.33075406     0.14100
H56         H  0.25819355  0.09882783  0.39367181    -0.00100
H57         H  0.16171185  0.08349302  0.35943240     0.14400
H58         H  0.20759900  0.14330464  0.45191916     0.14200
C59         C  0.13614693  0.43726591  0.36707625     0.86000
C60         C  0.14600983  0.42180801  0.33234106    -0.54200
C61         C  0.12869062  0.38794766  0.33295548     0.08900
C62         C  0.10224886  0.37228272  0.36897010     0.19900
C63         C  0.09821704  0.42102896  0.36278840    -0.54900
C64         C  0.08027519  0.38719388  0.36362114     0.09000
C65         C  0.13900221  0.42187592  0.40850072    -0.54500
C66         C  0.12176067  0.38814810  0.41003839     0.09600
H67         H  0.16554714  0.43679131  0.30924640     0.14100
H68         H  0.08816848  0.34493708  0.36922011    -0.00100
H69         H  0.08634130  0.43513400  0.36034588     0.14400
H70         H  0.15044755  0.43608134  0.43669437     0.14200
C71         C  0.11367562  0.42313003  0.12880544     0.86000
C72         C  0.11983953  0.41291364  0.08557373    -0.54200
C73         C  0.10789205  0.38007728  0.08165178     0.08900
C74         C  0.08953939  0.35950429  0.12216894     0.19900
C75         C  0.07548831  0.40118202  0.13357179    -0.54900
C76         C  0.06223295  0.36771672  0.13141064     0.09000
C77         C  0.12753488  0.40956803  0.16066457    -0.54500
C78         C  0.11558465  0.37680805  0.15758266     0.09600
H79         H  0.13182665  0.43013858  0.05924090     0.14100
H80         H  0.08053417  0.33297956  0.11980783    -0.00100
H81         H  0.05955545  0.41105311  0.13428767     0.14400
H82         H  0.14615040  0.42509936  0.18372996     0.14200
C83         C  0.36400300  0.29416503  0.12152585     0.86000
C84         C  0.34974445  0.26479904  0.15289698    -0.54200
C85         C  0.36423376  0.24666803  0.15023889     0.08900
C86         C  0.39157037  0.25895530  0.11540012     0.19900
C87         C  0.40184776  0.31371931  0.12867733    -0.54900
C88         C  0.41665075  0.29559441  0.12659668     0.09000
C89         C  0.35949005  0.27792075  0.07868771    -0.54500
C90         C  0.37395989  0.25984633  0.07448807     0.09600
H91         H  0.33018257  0.25837343  0.17603553     0.14100
H92         H  0.40268315  0.24359757  0.11288531    -0.00100
H93         H  0.41565310  0.34009749  0.13401860     0.14400
H94         H  0.34704788  0.28181224  0.05270093     0.14200
C95         C  0.29380926  0.36655944  0.11718866     0.86000
C96         C  0.28584192  0.37118113  0.07166950    -0.54200
C97         C  0.26910154  0.38716931  0.06839431     0.08900
C98         C  0.26133940  0.39699274  0.11157100     0.19900
C99         C  0.31219250  0.40159946  0.13578363    -0.54900
C100        C  0.29600740  0.41834616  0.13190234     0.09000
C101        C  0.25923125  0.34802365  0.13836097    -0.54500
C102        C  0.24296090  0.36440517  0.13807950     0.09600
H103        H  0.29306989  0.36299347  0.04390962     0.14100
H104        H  0.24710030  0.40917925  0.10788861    -0.00100
H105        H  0.33705328  0.41278479  0.14858392     0.14400
H106        H  0.24857495  0.32430787  0.15416729     0.14200
C107        C  0.13653874  0.20755754  0.37289718     0.86000
C108        C  0.14022838  0.22237706  0.41673694    -0.54200
C109        C  0.12551750  0.24009026  0.42196549     0.08900
C110        C  0.10829022  0.24194017  0.38125025     0.19900
C111        C  0.09840787  0.18762430  0.36712977    -0.54900
C112        C  0.08318600  0.20540692  0.37026024     0.09000
C113        C  0.15013164  0.23673370  0.34228019    -0.54500
C114        C  0.13552125  0.25469645  0.34599007     0.09600
H115        H  0.15022531  0.21593840  0.44331361     0.14100
H116        H  0.09777115  0.25771565  0.38406508    -0.00100
H117        H  0.08411581  0.16106167  0.36427667     0.14400
H118        H  0.16890460  0.24189242  0.31820299     0.14200
C119        C  0.38235382  0.07498187  0.36421616     0.86000
C120        C  0.36938287  0.08984767  0.33336845    -0.54200
C121        C  0.38449633  0.12313322  0.33511548     0.08900
C122        C  0.41276149  0.13937978  0.36825846     0.19900
C123        C  0.42027632  0.09338302  0.35622585    -0.54900
C124        C  0.43685825  0.12723226  0.35762147     0.09000
C125        C  0.38013426  0.08755402  0.40769782    -0.54500
C126        C  0.39559050  0.12099894  0.41028236     0.09600
H127        H  0.34894357  0.07482731  0.31211759     0.14100
H128        H  0.42475624  0.16653785  0.36999855    -0.00100
H129        H  0.43299406  0.08016334  0.35586990     0.14400
H130        H  0.36968327  0.07157732  0.43544136     0.14200
C131        C  0.30447435  0.37713883  0.35472525     0.86000
C132        C  0.27922351  0.36670740  0.31885945    -0.54200
C133        C  0.26188940  0.38240863  0.31808718     0.08900
C134        C  0.27172131  0.40759079  0.35391225     0.19900
C135        C  0.32665476  0.41478131  0.35055086    -0.54900
C136        C  0.30990818  0.43094609  0.34941010     0.09000
C137        C  0.28257721  0.37085279  0.39425156    -0.54500
C138        C  0.26671000  0.38792269  0.39507301     0.09600
H139        H  0.27368071  0.34678135  0.29777588     0.14100
H140        H  0.25736064  0.41989671  0.35354159    -0.00100
H141        H  0.35364350  0.42749889  0.35076912     0.14400
H142        H  0.28223101  0.35686634  0.42160516     0.14200
C143        C  0.36640313  0.06502832  0.13471751     0.86000
C144        C  0.36758354  0.07708879  0.08939850    -0.54200
C145        C  0.38288638  0.11050035  0.08486065     0.08900
C146        C  0.39536263  0.12941670  0.12684443     0.19900
C147        C  0.40297254  0.08503851  0.14923572    -0.54900
C148        C  0.41817007  0.11863298  0.14459363     0.09000
C149        C  0.35020389  0.07993796  0.16125951    -0.54500
C150        C  0.36573763  0.11362638  0.15836342     0.09600
H151        H  0.35916889  0.06065488  0.06247874     0.14100
H152        H  0.40739782  0.15654678  0.12326504    -0.00100
H153        H  0.41591911  0.07372554  0.16161771     0.14400
H154        H  0.33111422  0.06583829  0.18504586     0.14200
C155        C  0.11000342  0.18458206  0.15145630     0.86000
C156        C  0.12393250  0.21404433  0.18104682    -0.54200
C157        C  0.11272684  0.23485077  0.17435717     0.08900
C158        C  0.08798436  0.22420277  0.13786512     0.19900
C159        C  0.07177379  0.16796651  0.15677247    -0.54900
C160        C  0.06023588  0.18867846  0.15018679     0.09000
C161        C  0.11704556  0.19955457  0.10680775    -0.54500
C162        C  0.10566942  0.21991399  0.09928468     0.09600
H163        H  0.14144152  0.21790112  0.20574208     0.14100
H164        H  0.07958574  0.24158151  0.13245546    -0.00100
H165        H  0.05439191  0.14237848  0.16382796     0.14400
H166        H  0.12897403  0.19334764  0.08221302     0.14200
O167        O  0.32636823  0.20190763  0.19443884    -0.85800
O168        O  0.27037542  0.15162942  0.23759596    -0.82900
C169        C  0.26345372  0.12849332  0.21282009     0.97600
O170        O  0.28178745  0.11665699  0.21197368    -0.82900
O171        O  0.33841711  0.11480576  0.22010851    -0.85500
C172        C  0.35988274  0.13189006  0.19189670     1.02200
O173        O  0.37670238  0.16312350  0.19363413    -0.78300
O174        O  0.38005702  0.22226670  0.20318288    -0.78500
C175        C  0.35645498  0.22122886  0.18289287     1.02100
O176        O  0.35313364  0.23141283  0.27139757    -0.85800
O177        O  0.30225886  0.17618285  0.31496798    -0.82900
C178        C  0.28249867  0.14625075  0.32571702     0.97700
O179        O  0.28066574  0.12321929  0.30392418    -0.82900
O180        O  0.33966390  0.12565232  0.30865586    -0.85500
C181        C  0.37094068  0.13889525  0.30863336     1.02100
O182        O  0.38953400  0.16198610  0.28292783    -0.78300
O183        O  0.38816731  0.21928002  0.29538887    -0.78500
C184        C  0.37588892  0.23725036  0.29651200     1.02100
Cr185      Cr  0.31485189  0.18847596  0.25455758     1.93700
Cr186      Cr  0.31218257  0.12366967  0.26056579     1.93200
Cr187      Cr  0.38012212  0.18987507  0.24462534     1.39100
O188        O  0.33595896  0.16713737  0.25315688    -1.23600
C189        C  0.02402082  0.17667641  0.15413834    -0.00600
C190        C  0.00488658  0.15391998  0.18678655    -0.12500
C191        C  0.47015792  0.13813084  0.18707153     0.01600
C192        C  0.45402941  0.14219401  0.15270947    -0.00700
C193        C  0.47283513  0.16767654  0.12344923    -0.12400
C194        C  0.00740744  0.18507107  0.12439729     0.01500
H195        H  0.01713376  0.14891267  0.21188746     0.14500
H196        H  0.46050507  0.17230207  0.09810109     0.14500
C197        C  0.02445201  0.20999140  0.09200606     0.36100
C198        C  0.45066254  0.11724398  0.22230196     0.36000
N199        N  0.03722100  0.22982191  0.06555363    -0.44200
N200        N  0.43287271  0.10027891  0.24908958    -0.44200
C201        C  0.40094872  0.13535278  0.45310621    -0.00600
C202        C  0.42498006  0.13415796  0.47720181    -0.12500
C203        C  0.42109027  0.12867005  0.02084249     0.01600
C204        C  0.39329089  0.12607166  0.04201545    -0.00700
C205        C  0.37161659  0.13187167  0.01896094    -0.12400
C206        C  0.37492522  0.13604537  0.47427319     0.01500
H207        H  0.44458738  0.13283639  0.46102655     0.14500
H208        H  0.35010685  0.12973799  0.03479643     0.14500
C209        C  0.35012893  0.13802759  0.45052389     0.36100
C210        C  0.44245112  0.11988139  0.04141449     0.36000
N211        N  0.33047688  0.13972215  0.43107856    -0.44200
N212        N  0.45944136  0.11231559  0.05714007    -0.44200
C213        C  0.36301522  0.03735795  0.36021635    -0.00600
C214        C  0.37522356  0.02269654  0.33305946    -0.12500
C215        C  0.35759603  0.48842966  0.32729379     0.01600
C216        C  0.32735038  0.46768932  0.34965518    -0.00700
C217        C  0.31375293  0.48236246  0.37390537    -0.12400
C218        C  0.33048241  0.01674833  0.37781484     0.01500
H219        H  0.39794632  0.03790167  0.31481671     0.14500
H220        H  0.29003811  0.46711806  0.39020160     0.14500
C221        C  0.31267876  0.02975091  0.39889534     0.36100
C222        C  0.37044867  0.47573414  0.29623564     0.36000
N223        N  0.29832329  0.04009734  0.41569393    -0.44200
N224        N  0.38081626  0.46571684  0.27122945    -0.44200
C225        C  0.10636176  0.23127410  0.05532963    -0.00600
C226        C  0.13595971  0.25890004  0.03983708    -0.12500
C227        C  0.14184089  0.26411487  0.49502102     0.01600
C228        C  0.11679404  0.24333210  0.46619611    -0.00700
C229        C  0.08648824  0.21703672  0.48239903    -0.12400
C230        C  0.08227842  0.20973093  0.02617010     0.01500
H231        H  0.15578023  0.27382162  0.06177173     0.14500
H232        H  0.06846347  0.19895774  0.46081441     0.14500
C233        C  0.05515797  0.17735739  0.03909946     0.36100
C234        C  0.17600154  0.28540049  0.48102490     0.36000
N235        N  0.03388827  0.15120292  0.04944001    -0.44200
N236        N  0.20364350  0.30107182  0.47020133    -0.44200
C237        C  0.47465158  0.14910876  0.35678067    -0.00600
C238        C  0.49032135  0.17812361  0.38103198    -0.12500
C239        C  0.02526963  0.19802170  0.38537129     0.01600
C240        C  0.04598943  0.18918706  0.36411976    -0.00700
C241        C  0.03035164  0.16171425  0.33754907    -0.12400
C242        C  0.49581266  0.14120811  0.33449496     0.01500
H243        H  0.47521519  0.18471144  0.39920529     0.14500
H244        H  0.04539827  0.15515482  0.31909646     0.14500
C245        C  0.48415147  0.11101942  0.31171287     0.36100
C246        C  0.03830247  0.22585185  0.41325367     0.36000
N247        N  0.47633009  0.08663940  0.29458576    -0.44200
N248        N  0.04811038  0.24805791  0.43577605    -0.44200
C249        C  0.34920365  0.02691582  0.13751991    -0.00600
C250        C  0.31518082  0.00698780  0.14932160    -0.12500
C251        C  0.29734706  0.47178828  0.14965336     0.01600
C252        C  0.31367641  0.45534309  0.13740022    -0.00700
C253        C  0.34765960  0.47512761  0.12595206    -0.12400
C254        C  0.36527258  0.01022776  0.12461283     0.01500
H255        H  0.30095358  0.01814708  0.15662977     0.14500
H256        H  0.36094958  0.46349928  0.11573785     0.14500
C257        C  0.39872260  0.02742887  0.10716001     0.36100
C258        C  0.26289182  0.45442382  0.16316703     0.36000
N259        N  0.42556525  0.04080200  0.09329256    -0.44200
N260        N  0.23529037  0.44190514  0.17386122    -0.44200
C261        C  0.26183632  0.39838026  0.43721075    -0.00600
C262        C  0.29086660  0.42124639  0.45820907    -0.12500
C263        C  0.29197229  0.42094419  0.00192423     0.01600
C264        C  0.26400190  0.39722071  0.02593697    -0.00700
C265        C  0.23343521  0.37754442  0.00526429    -0.12400
C266        C  0.23213880  0.37924416  0.46085055     0.01500
H267        H  0.31375401  0.43646679  0.44011818     0.14500
H268        H  0.21151299  0.35972869  0.02338037     0.14500
C269        C  0.20084194  0.35921329  0.43959770     0.36100
C270        C  0.32408104  0.44224140  0.02059025     0.36000
N271        N  0.17581905  0.34343513  0.42227833    -0.44200
N272        N  0.35051372  0.45959621  0.03365104    -0.44200
C273        C  0.34889966  0.31591474  0.12306450    -0.00600
C274        C  0.32816774  0.31341607  0.15697119    -0.12500
C275        C  0.31209836  0.33095128  0.15718886     0.01600
C276        C  0.31408410  0.34991433  0.12128143    -0.00700
C277        C  0.33812598  0.35581596  0.09000401    -0.12400
C278        C  0.35576028  0.33969891  0.09096827     0.01500
H279        H  0.32499699  0.29876183  0.18464583     0.14500
H280        H  0.34358163  0.37339312  0.06467028     0.14500
C281        C  0.38084486  0.34829057  0.05847028     0.36100
C282        C  0.29507780  0.32968162  0.19586038     0.36000
N283        N  0.40095724  0.35522397  0.03244811    -0.44200
N284        N  0.28088813  0.32794142  0.22670301    -0.44200
C285        C  0.02478534  0.34398727  0.13582207    -0.00600
C286        C  0.00692963  0.35298667  0.16256381    -0.12500
C287        C  0.47207423  0.33664971  0.16220935     0.01600
C288        C  0.45348237  0.31041312  0.13380627    -0.00700
C289        C  0.47082540  0.29851708  0.11151493    -0.12400
C290        C  0.00582104  0.31457433  0.11251950     0.01500
H291        H  0.02042307  0.37350772  0.18391380     0.14500
H292        H  0.45724610  0.27681206  0.09226851     0.14500
C293        C  0.02073998  0.29942653  0.09012344     0.36100
C294        C  0.45633264  0.34644340  0.19303560     0.36000
N295        N  0.03173180  0.28611821  0.07243158    -0.44200
N296        N  0.44421665  0.35457375  0.21812176    -0.44200
C297        C  0.11807378  0.37133600  0.45178315    -0.00600
C298        C  0.14603088  0.38481977  0.47811288    -0.12500
C299        C  0.14383244  0.38277637  0.02085345     0.01600
C300        C  0.11186200  0.36795655  0.04002833    -0.00700
C301        C  0.08387368  0.34999332  0.01442209    -0.12400
C302        C  0.08645860  0.35036532  0.47059627     0.01500
H303        H  0.17079563  0.39991622  0.46422302     0.14500
H304        H  0.05919075  0.33892466  0.02801501     0.14500
C305        C  0.05808028  0.32888196  0.44534328     0.36100
C306        C  0.17368267  0.40022738  0.04570717     0.36000
N307        N  0.03619958  0.31060262  0.42436358    -0.44200
N308        N  0.19758006  0.41440884  0.06560210    -0.44200
C309        C  0.18825101  0.15406389  0.37492810    -0.00600
C310        C  0.15884108  0.14136370  0.35147435    -0.12500
C311        C  0.14297531  0.15910623  0.34680016     0.01600
C312        C  0.15487991  0.18905147  0.36887890    -0.00700
C313        C  0.18646071  0.20351795  0.38727890    -0.12400
C314        C  0.20318940  0.18680928  0.39013808     0.01500
H315        H  0.14898259  0.11845641  0.33464255     0.14500
H316        H  0.19812372  0.22814362  0.40021978     0.14500
C317        C  0.23597931  0.20437154  0.40863989     0.36100
C318        C  0.11768471  0.14807287  0.31493970     0.36000
N319        N  0.26223939  0.21850035  0.42332662    -0.44200
N320        N  0.09788434  0.13939366  0.28877533    -0.44200
C321        C  0.19151491  0.04671502  0.36969477    -0.00600
C322        C  0.16740154  0.02902693  0.33857465    -0.12500
C323        C  0.15084116  0.49423285  0.33559128     0.01600
C324        C  0.15670859  0.47564157  0.36539600     0.00900
C325        C  0.18334362  0.49368635  0.39324752    -0.12400
C326        C  0.19999576  0.02831941  0.39645745     0.01500
H327        H  0.16159721  0.04235977  0.31599140     0.14500
H328        H  0.19178921  0.48115325  0.41313275     0.14500
C329        C  0.22468724  0.04282615  0.42904176     0.36100
C330        C  0.12825499  0.47843665  0.30117075     0.36000
N331        N  0.24428675  0.05302382  0.45555323    -0.44200
N332        N  0.11005390  0.46533722  0.27371904    -0.44200
C333        C  0.38494153  0.25478925  0.44277398    -0.00600
C334        C  0.35275154  0.23582356  0.46064584    -0.12500
C335        C  0.34798754  0.23334840  0.00471743     0.01600
C336        C  0.37600544  0.24807257  0.03153722    -0.00700
C337        C  0.40764829  0.26084102  0.01311521    -0.12400
C338        C  0.41233717  0.26447512  0.46928051     0.01500
H339        H  0.33131782  0.22735105  0.44052454     0.14500
H340        H  0.42934032  0.27205176  0.03293381     0.14500
C341        C  0.44582288  0.28211328  0.45288219     0.36100
C342        C  0.31451678  0.21943775  0.02124748     0.36000
N343        N  0.47296296  0.29618444  0.44035238    -0.44200
N344        N  0.28770794  0.20887969  0.03417575    -0.44200
C345        C  0.47205177  0.33160545  0.35841444    -0.00600
C346        C  0.48899407  0.35737935  0.38732981    -0.12500
C347        C  0.02389786  0.37483787  0.39025970     0.01600
C348        C  0.04293828  0.36744640  0.36302893    -0.00700
C349        C  0.02605674  0.34135482  0.33446219    -0.12400
C350        C  0.49087619  0.32343477  0.33203522     0.01500
H351        H  0.47481319  0.36338276  0.40850614     0.14500
H352        H  0.04034597  0.33540173  0.31343942     0.14500
C353        C  0.47499915  0.29805700  0.30064116     0.36100
C354        C  0.03932147  0.39905184  0.42319607     0.36000
N355        N  0.46243570  0.27784670  0.27524349    -0.44200
N356        N  0.05181733  0.41837424  0.44963929    -0.44200
C357        C  0.36369932  0.32985217  0.35419382    -0.00600
C358        C  0.36030431  0.34420517  0.39126289    -0.12500
C359        C  0.34253557  0.36027409  0.39201344     0.01600
C360        C  0.32562459  0.36100991  0.35544660    -0.00700
C361        C  0.33336574  0.35120614  0.31724061    -0.12400
C362        C  0.35275174  0.33678910  0.31610042     0.01500
H363        H  0.37229583  0.34360138  0.42000081     0.14500
H364        H  0.32575327  0.35634574  0.28755730     0.14500
C365        C  0.36359309  0.33262648  0.27510593     0.36100
C366        C  0.34417522  0.37741946  0.43029151     0.36000
N367        N  0.37254717  0.32961731  0.24222131    -0.44200
N368        N  0.34592409  0.39118734  0.46112450    -0.44200
C369        C  0.17032731  0.03070222  0.14768579    -0.00600
C370        C  0.13931783  0.01037240  0.16833977    -0.12500
C371        C  0.11955018  0.47612495  0.16167575     0.01600
C372        C  0.13102830  0.46079147  0.13401022    -0.00700
C373        C  0.16343630  0.48094555  0.11645089    -0.12400
C374        C  0.18238222  0.01521154  0.12149575     0.01500
H375        H  0.13010894  0.02113601  0.19039379     0.14500
H376        H  0.17440965  0.46991241  0.09804151     0.14500
C377        C  0.21365807  0.03302414  0.09849666     0.36100
C378        C  0.08766104  0.45856310  0.18329567     0.36000
N379        N  0.23860563  0.04638545  0.07961443    -0.44200
N380        N  0.06199039  0.44526172  0.20052451    -0.44200
C381        C  0.23353991  0.10905651  0.06493605    -0.00600
C382        C  0.20591140  0.08708097  0.04099646    -0.12500
C383        C  0.20739528  0.08760152  0.49665514     0.01600
C384        C  0.23710951  0.11140370  0.47535593    -0.00700
C385        C  0.26608632  0.13073613  0.49912579    -0.12400
C386        C  0.26447778  0.12973753  0.04446551     0.01500
H387        H  0.18212894  0.07080391  0.05681393     0.14500
H388        H  0.28902551  0.14901800  0.48321702     0.14500
C389        C  0.29399067  0.15041881  0.06881400     0.36100
C390        C  0.17683584  0.06641469  0.47437322     0.36000
N391        N  0.31751989  0.16679612  0.08865537    -0.44200
N392        N  0.15212832  0.04926696  0.45705481    -0.44200
C393        C  0.12806274  0.16569634  0.15777660    -0.00600
C394        C  0.16305810  0.18453519  0.15156827    -0.12500
C395        C  0.18265808  0.17059818  0.15318901     0.01600
C396        C  0.16761488  0.13623303  0.15986600    -0.00700
C397        C  0.13321113  0.11789307  0.16995391    -0.12400
C398        C  0.11347348  0.13184925  0.16880205     0.01500
H399        H  0.17536668  0.21075090  0.14468741     0.14500
H400        H  0.12104132  0.09241697  0.17974993     0.14500
C401        C  0.07882973  0.10989082  0.17993498     0.36100
C402        C  0.21829196  0.19246391  0.14746467     0.36000
N403        N  0.05128088  0.09109856  0.18924609    -0.44200
N404        N  0.24680546  0.21011746  0.14300306    -0.44200
O405        O  0.14735602  0.27074645  0.72605493    -0.85800
O406        O  0.19740375  0.32596977  0.68267025    -0.82900
C407        C  0.21715363  0.35585906  0.67194938     0.97600
O408        O  0.21931773  0.37870274  0.69453183    -0.82900
O409        O  0.16028636  0.37642887  0.68717850    -0.85500
C410        C  0.12890527  0.36233130  0.68581571     1.02200
O411        O  0.11003855  0.33900178  0.71114706    -0.78300
O412        O  0.11188886  0.28224405  0.70182577    -0.78500
C413        C  0.12422273  0.26440199  0.70141163     1.02100
O414        O  0.17298255  0.30041361  0.80308034    -0.85800
O415        O  0.22889280  0.35122228  0.76078764    -0.82900
C416        C  0.23423746  0.37293537  0.78720956     0.97700
O417        O  0.21589359  0.38483681  0.78691119    -0.82900
O418        O  0.15919718  0.38726888  0.77482823    -0.85500
C419        C  0.13612806  0.37022320  0.80134998     1.02100
O420        O  0.12041931  0.33897665  0.80086276    -0.78300
O421        O  0.11923771  0.28009360  0.79431986    -0.78500
C422        C  0.14288628  0.28088648  0.81438478     1.02100
Cr423      Cr  0.18480978  0.31393417  0.74313261     1.93700
Cr424      Cr  0.18680901  0.37830691  0.73656759     1.93200
Cr425      Cr  0.11894404  0.31185089  0.75144076     1.39100
O426        O  0.16316470  0.33485445  0.74391583    -1.23600
C427        C  0.18868176  0.12051063  0.65436683     0.86000
C428        C  0.20848607  0.12876202  0.61265210    -0.54200
C429        C  0.22705360  0.11466402  0.60811183     0.08900
C430        C  0.22471041  0.09375654  0.64693511     0.19900
C431        C  0.16846002  0.08248840  0.65517776    -0.54900
C432        C  0.18681256  0.06797487  0.65167980     0.09000
C433        C  0.21453600  0.13038944  0.68880337    -0.54500
C434        C  0.23388264  0.11703621  0.68503879     0.09600
H435        H  0.20467989  0.14123701  0.58651254     0.14100
H436        H  0.24106938  0.08378892  0.64458924    -0.00100
H437        H  0.14157918  0.06792174  0.65391907     0.14400
H438        H  0.21803795  0.14777130  0.71331264     0.14200
C439        C  0.38076165  0.30987168  0.85604804     0.86000
C440        C  0.37331983  0.29032830  0.89765719    -0.54200
C441        C  0.38865580  0.27296962  0.90188992     0.08900
C442        C  0.41039077  0.27629612  0.86279214     0.19900
C443        C  0.41889778  0.33119759  0.85309688    -0.54900
C444        C  0.43465784  0.31410230  0.85644141     0.09000
C445        C  0.37062411  0.28303139  0.82278582    -0.54500
C446        C  0.38608727  0.26550572  0.82537027     0.09600
H447        H  0.35713874  0.29021914  0.92234908     0.14100
H448        H  0.42283701  0.26218759  0.86593983    -0.00100
H449        H  0.43240779  0.35786478  0.84942608     0.14400
H450        H  0.35074337  0.27657134  0.80071838     0.14200
C451        C  0.20608031  0.13549529  0.88054924     0.86000
C452        C  0.23773471  0.15146343  0.85379363    -0.54200
C453        C  0.25637778  0.13785905  0.85833010     0.08900
C454        C  0.24165680  0.10876030  0.89072294     0.19900
C455        C  0.18753527  0.09812661  0.86947904    -0.54900
C456        C  0.20598796  0.08369366  0.87518215     0.09000
C457        C  0.21719663  0.13635049  0.92595509    -0.54500
C458        C  0.23556795  0.12239499  0.93200062     0.09600
H459        H  0.24366414  0.17070559  0.83046478     0.14100
H460        H  0.25806544  0.09893680  0.89438782    -0.00100
H461        H  0.16152833  0.08363751  0.86089524     0.14400
H462        H  0.20849623  0.14463757  0.95218119     0.14200
C463        C  0.13580704  0.43766409  0.86743323     0.86000
C464        C  0.14559401  0.42236543  0.83229060    -0.54200
C465        C  0.12835473  0.38848541  0.83272758     0.08900
C466        C  0.10204017  0.37266074  0.86879550     0.19900
C467        C  0.09783172  0.42135242  0.86342520    -0.54900
C468        C  0.07995710  0.38750643  0.86397804     0.09000
C469        C  0.13885721  0.42207243  0.90856628    -0.54500
C470        C  0.12175781  0.38835243  0.90972941     0.09600
H471        H  0.16509620  0.43743897  0.80920363     0.14100
H472        H  0.08801021  0.34531670  0.86886082    -0.00100
H473        H  0.08589690  0.43541871  0.86128474     0.14400
H474        H  0.15042075  0.43605752  0.93685180     0.14200
C475        C  0.11212087  0.42313034  0.63043909     0.86000
C476        C  0.11757878  0.41303074  0.58669488    -0.54200
C477        C  0.10586715  0.38027101  0.58248694     0.08900
C478        C  0.08835115  0.35960826  0.62323057     0.19900
C479        C  0.07401993  0.40091350  0.63639013    -0.54900
C480        C  0.06097063  0.36748977  0.63366028     0.09000
C481        C  0.12673417  0.40970016  0.66136470    -0.54500
C482        C  0.11492515  0.37699449  0.65803653     0.09600
H483        H  0.12936076  0.43040178  0.56045014     0.14100
H484        H  0.07957354  0.33315631  0.62066277    -0.00100
H485        H  0.05786669  0.41048772  0.63781875     0.14400
H486        H  0.14560503  0.42525492  0.68416016     0.14200
C487        C  0.36319718  0.29350170  0.62131848     0.86000
C488        C  0.34881557  0.26401925  0.65253211    -0.54200
C489        C  0.36344914  0.24601624  0.65007138     0.08900
C490        C  0.39098982  0.25847371  0.61551086     0.19900
C491        C  0.40100736  0.31312320  0.62888331    -0.54900
C492        C  0.41591053  0.29508268  0.62693191     0.09000
C493        C  0.35901674  0.27740967  0.57842276    -0.54500
C494        C  0.37360000  0.25941814  0.57443118     0.09600
H495        H  0.32909290  0.25743787  0.67547209     0.14100
H496        H  0.40219488  0.24319173  0.61311851    -0.00100
H497        H  0.41472337  0.33947389  0.63443419     0.14400
H498        H  0.34667176  0.28127962  0.55229292     0.14200
C499        C  0.29316202  0.36617013  0.61744171     0.86000
C500        C  0.28531243  0.37085957  0.57190118    -0.54200
C501        C  0.26872067  0.38698436  0.56854154     0.08900
C502        C  0.26084650  0.39676113  0.61164446     0.19900
C503        C  0.31157913  0.40122173  0.63607412    -0.54900
C504        C  0.29545000  0.41803358  0.63209526     0.09000
C505        C  0.25853643  0.34770405  0.63849878    -0.54500
C506        C  0.24234473  0.36416705  0.63810097     0.09600
H507        H  0.29259764  0.36269975  0.54416668     0.14100
H508        H  0.24665734  0.40899459  0.60785262    -0.00100
H509        H  0.33643848  0.41238763  0.64886977     0.14400
H510        H  0.24776293  0.32397378  0.65428622     0.14200
C511        C  0.13664952  0.20798592  0.87341817     0.86000
C512        C  0.14083876  0.22310716  0.91710250    -0.54200
C513        C  0.12610899  0.24078651  0.92259805     0.08900
C514        C  0.10847308  0.24243158  0.88210298     0.19900
C515        C  0.09844421  0.18804649  0.86832549    -0.54900
C516        C  0.08327395  0.20585772  0.87143152     0.09000
C517        C  0.14994373  0.23699762  0.84253515    -0.54500
C518        C  0.13537981  0.25501017  0.84641441     0.09600
H519        H  0.15108082  0.21675815  0.94349055     0.14100
H520        H  0.09793795  0.25819054  0.88509390    -0.00100
H521        H  0.08400388  0.16146108  0.86602723     0.14400
H522        H  0.16852140  0.24204158  0.81822308     0.14200
C523        C  0.38253373  0.07520281  0.86472926     0.86000
C524        C  0.36935305  0.08987102  0.83387898    -0.54200
C525        C  0.38433784  0.12315017  0.83543912     0.08900
C526        C  0.41271604  0.13961037  0.86844355     0.19900
C527        C  0.42044612  0.09374079  0.85656948    -0.54900
C528        C  0.43690413  0.12758093  0.85782529     0.09000
C529        C  0.38036724  0.08787187  0.90817123    -0.54500
C530        C  0.39573258  0.12132864  0.91058768     0.09600
H531        H  0.34888685  0.07471810  0.81272902     0.14100
H532        H  0.42465208  0.16676994  0.87005907    -0.00100
H533        H  0.43330476  0.08065550  0.85640690     0.14400
H534        H  0.37003596  0.07196623  0.93599110     0.14200
C535        C  0.30447297  0.37742766  0.85404118     0.86000
C536        C  0.27928518  0.36723373  0.81813055    -0.54200
C537        C  0.26189724  0.38288396  0.81764399     0.08900
C538        C  0.27172073  0.40788438  0.85372939     0.19900
C539        C  0.32665742  0.41508076  0.85027757    -0.54900
C540        C  0.30994266  0.43128522  0.84937206     0.09000
C541        C  0.28254692  0.37091696  0.89359757    -0.54500
C542        C  0.26666045  0.38795939  0.89468654     0.09600
H543        H  0.27373786  0.34742175  0.79685125     0.14100
H544        H  0.25733933  0.42016796  0.85357531    -0.00100
H545        H  0.35363457  0.42774747  0.85070174     0.14400
H546        H  0.28228083  0.35684737  0.92081613     0.14200
C547        C  0.36564310  0.06443469  0.63448005     0.86000
C548        C  0.36654026  0.07647665  0.58922803    -0.54200
C549        C  0.38190969  0.10990092  0.58465509     0.08900
C550        C  0.39469892  0.12884812  0.62660444     0.19900
C551        C  0.40230984  0.08441435  0.64860278    -0.54900
C552        C  0.41758683  0.11801481  0.64395716     0.09000
C553        C  0.34967126  0.07941002  0.66134183    -0.54500
C554        C  0.36524495  0.11311385  0.65844204     0.09600
H555        H  0.35800426  0.06002290  0.56232862     0.14100
H556        H  0.40676590  0.15598113  0.62303309    -0.00100
H557        H  0.41526812  0.07306395  0.66078473     0.14400
H558        H  0.33061380  0.06528961  0.68516457     0.14200
C559        C  0.11083265  0.18562851  0.65041799     0.86000
C560        C  0.12426225  0.21479458  0.68034462    -0.54200
C561        C  0.11251732  0.23519709  0.67411729     0.08900
C562        C  0.08777842  0.22444455  0.63752256     0.19900
C563        C  0.07249279  0.16827925  0.65522920    -0.54900
C564        C  0.06039017  0.18860095  0.64928748     0.09000
C565        C  0.11774965  0.20089737  0.60594997    -0.54500
C566        C  0.10581236  0.22083009  0.59872326     0.09600
H567        H  0.14192884  0.21879022  0.70488337     0.14100
H568        H  0.07898809  0.24153720  0.63244883    -0.00100
H569        H  0.05545755  0.14225697  0.66031231     0.14400
H570        H  0.12984832  0.19504907  0.58117282     0.14200
O571        O  0.32571121  0.20142948  0.69457232    -0.85800
O572        O  0.26990079  0.15119476  0.73798768    -0.82900
C573        C  0.26315356  0.12832842  0.71282828     0.97600
O574        O  0.28141907  0.11640986  0.71203156    -0.82900
O575        O  0.33795852  0.11438565  0.72019688    -0.85500
C576        C  0.35942238  0.13143562  0.69196994     1.02200
O577        O  0.37623708  0.16267628  0.69367182    -0.78300
O578        O  0.37943438  0.22177503  0.70302597    -0.78500
C579        C  0.35576181  0.22069098  0.68284725     1.02100
O580        O  0.35268758  0.23111846  0.77136881    -0.85800
O581        O  0.30206963  0.17590619  0.81517661    -0.82900
C582        C  0.28225865  0.14599165  0.82592741     0.97700
O583        O  0.28030913  0.12292340  0.80408845    -0.82900
O584        O  0.33933025  0.12531431  0.80872948    -0.85500
C585        C  0.37063893  0.13871429  0.80879001     1.02100
O586        O  0.38918554  0.16181028  0.78305684    -0.78300
O587        O  0.38782239  0.21910381  0.79526391    -0.78500
C588        C  0.37551588  0.23704979  0.79640600     1.02100
Cr589      Cr  0.31440838  0.18810687  0.75473386     1.93700
Cr590      Cr  0.31178292  0.12332928  0.76066956     1.93200
Cr591      Cr  0.37968310  0.18955136  0.74459446     1.39100
O592        O  0.33554699  0.16679713  0.75324602    -1.23600
C593        C  0.02396412  0.17589762  0.65311863    -0.00600
C594        C  0.00497985  0.15238912  0.68511324    -0.12500
C595        C  0.46989920  0.13704022  0.68556616     0.01600
C596        C  0.45357755  0.14146143  0.65173022    -0.00700
C597        C  0.47231553  0.16710510  0.62261100    -0.12400
C598        C  0.00710943  0.18463131  0.62419979     0.01500
H599        H  0.01737794  0.14695399  0.70955032     0.14500
H600        H  0.45988703  0.17198065  0.59765265     0.14500
C601        C  0.02393064  0.20998767  0.59225464     0.36100
C602        C  0.45063334  0.11605857  0.72084326     0.36000
N603        N  0.03654592  0.23013315  0.56614276    -0.44200
N604        N  0.43301429  0.09902081  0.74770339    -0.44200
C605        C  0.40127025  0.13583567  0.95333460    -0.00600
C606        C  0.42556992  0.13493706  0.97721768    -0.12500
C607        C  0.42028675  0.12785995  0.52080364     0.01600
C608        C  0.39247127  0.12540144  0.54176154    -0.00700
C609        C  0.37101893  0.13140204  0.51848327    -0.12400
C610        C  0.37523495  0.13636116  0.97473295     0.01500
H611        H  0.44517585  0.13371719  0.96087704     0.14500
H612        H  0.34951403  0.12941577  0.53413134     0.14500
C613        C  0.35003167  0.13782034  0.95124477     0.36100
C614        C  0.44156226  0.11905395  0.54157639     0.36000
N615        N  0.32998998  0.13903704  0.93206775    -0.44200
N616        N  0.45858461  0.11156384  0.55739025    -0.44200
C617        C  0.36332699  0.03754931  0.86085256    -0.00600
C618        C  0.37571845  0.02292902  0.83392524    -0.12500
C619        C  0.35797303  0.48892990  0.82825672     0.01600
C620        C  0.32745554  0.46805849  0.85004418    -0.00700
C621        C  0.31365805  0.48263678  0.87412625    -0.12400
C622        C  0.33073146  0.01687300  0.87824274     0.01500
H623        H  0.39855667  0.03815437  0.81591469     0.14500
H624        H  0.28978312  0.46733272  0.89003382     0.14500
C625        C  0.31293174  0.02982558  0.89946076     0.36100
C626        C  0.37126497  0.47647883  0.79747191     0.36000
N627        N  0.29858882  0.04013732  0.91638213    -0.44200
N628        N  0.38205928  0.46670729  0.77272007    -0.44200
C629        C  0.10601410  0.23192116  0.55472596    -0.00600
C630        C  0.13548712  0.25949411  0.53881590    -0.12500
C631        C  0.14244904  0.26393772  0.99610185     0.01600
C632        C  0.11737651  0.24362373  0.96699331    -0.00700
C633        C  0.08699078  0.21722218  0.98287185    -0.12400
C634        C  0.08185544  0.21003739  0.52583278     0.01500
H635        H  0.15535963  0.27471804  0.56053955     0.14500
H636        H  0.06895559  0.19941695  0.96106860     0.14500
C637        C  0.05483571  0.17772951  0.53915352     0.36100
C638        C  0.17672109  0.28499607  0.98240818     0.36000
N639        N  0.03361270  0.15160551  0.54968253    -0.44200
N640        N  0.20444491  0.30044021  0.97187602    -0.44200
C641        C  0.47468628  0.14950682  0.85717949    -0.00600
C642        C  0.49027690  0.17834643  0.88178255    -0.12500
C643        C  0.02525802  0.19836054  0.88629236     0.01600
C644        C  0.04608160  0.18962536  0.86513600    -0.00700
C645        C  0.03056708  0.16221911  0.83844774    -0.12400
C646        C  0.49590686  0.14170861  0.83485891     0.01500
H647        H  0.47510212  0.18483099  0.89999536     0.14500
H648        H  0.04570360  0.15571318  0.82009930     0.14500
C649        C  0.48432314  0.11159829  0.81193507     0.36100
C650        C  0.03821364  0.22600181  0.91448332     0.36000
N651        N  0.47664615  0.08724778  0.79483012    -0.44200
N652        N  0.04800516  0.24802873  0.93730551    -0.44200
C653        C  0.34842422  0.02630005  0.63731338    -0.00600
C654        C  0.31436432  0.00638733  0.64894440    -0.12500
C655        C  0.29690472  0.47162980  0.64924065     0.01600
C656        C  0.31317361  0.45506155  0.63725468    -0.00700
C657        C  0.34709579  0.47472830  0.62554307    -0.12400
C658        C  0.36450199  0.00956562  0.62460493     0.01500
H659        H  0.30015954  0.01760993  0.65610084     0.14500
H660        H  0.36033375  0.46299242  0.61556050     0.14500
C661        C  0.39795259  0.02667324  0.60717128     0.36100
C662        C  0.26248656  0.45438699  0.66290424     0.36000
N663        N  0.42480751  0.03995937  0.59335661    -0.44200
N664        N  0.23491635  0.44195798  0.67370174    -0.44200
C665        C  0.26156916  0.39803553  0.93698358    -0.00600
C666        C  0.29041537  0.42133666  0.95794030    -0.12500
C667        C  0.29235897  0.42070586  0.50217424     0.01600
C668        C  0.26408032  0.39740840  0.52611094    -0.00700
C669        C  0.23342208  0.37841936  0.50540924    -0.12400
C670        C  0.23203785  0.37830770  0.96070343     0.01500
H671        H  0.31318643  0.43695370  0.93982057     0.14500
H672        H  0.21128377  0.36099016  0.52348583     0.14500
C673        C  0.20084594  0.35762534  0.93949142     0.36100
C674        C  0.32463080  0.44121341  0.52083820     0.36000
N675        N  0.17592198  0.34131193  0.92217031    -0.44200
N676        N  0.35121096  0.45786782  0.53384711    -0.44200
C677        C  0.34797332  0.31516541  0.62282579    -0.00600
C678        C  0.32711210  0.31250306  0.65667136    -0.12500
C679        C  0.31111436  0.33010795  0.65709084     0.01600
C680        C  0.31336096  0.34941927  0.62145069    -0.00700
C681        C  0.33746929  0.35540780  0.59021215    -0.12400
C682        C  0.35494922  0.33912138  0.59092538     0.01500
H683        H  0.32378368  0.29766416  0.68420191     0.14500
H684        H  0.34307151  0.37316451  0.56506301     0.14500
C685        C  0.37998830  0.34773467  0.55835748     0.36100
C686        C  0.29392164  0.32852816  0.69574547     0.36000
N687        N  0.40003736  0.35470551  0.53223317    -0.44200
N688        N  0.27960486  0.32646984  0.72660500    -0.44200
C689        C  0.02355441  0.34348075  0.63774904    -0.00600
C690        C  0.00534114  0.35190619  0.66472467    -0.12500
C691        C  0.47110234  0.33602353  0.66310282     0.01600
C692        C  0.45271520  0.30994733  0.63442885    -0.00700
C693        C  0.47023844  0.29825276  0.61213962    -0.12400
C694        C  0.00493857  0.31436587  0.61376590     0.01500
H695        H  0.01855279  0.37215604  0.68653721     0.14500
H696        H  0.45680098  0.27662534  0.59272566     0.14500
C697        C  0.02020040  0.29977216  0.59084934     0.36100
C698        C  0.45510729  0.34545559  0.69402211     0.36000
N699        N  0.03147151  0.28690137  0.57271785    -0.44200
N700        N  0.44279072  0.35326811  0.71923239    -0.44200
C701        C  0.11872788  0.37123556  0.95095767    -0.00600
C702        C  0.14703309  0.38464270  0.97664436    -0.12500
C703        C  0.14228945  0.38307817  0.52226400     0.01600
C704        C  0.11012729  0.36840152  0.54079707    -0.00700
C705        C  0.08241712  0.35055916  0.51467802    -0.12400
C706        C  0.08737806  0.35005280  0.97025116     0.01500
H707        H  0.17161218  0.39988233  0.96229824     0.14500
H708        H  0.05757448  0.33953878  0.52778553     0.14500
C709        C  0.05863102  0.32892405  0.94538692     0.36100
C710        C  0.17183170  0.40030513  0.54770898     0.36000
N711        N  0.03640130  0.31097323  0.92465038    -0.44200
N712        N  0.19546027  0.41424722  0.56812761    -0.44200
C713        C  0.18840141  0.15447289  0.87528908    -0.00600
C714        C  0.15837154  0.14122274  0.85311453    -0.12500
C715        C  0.14242185  0.15885837  0.84842548     0.01600
C716        C  0.15493109  0.18940340  0.86925494    -0.00700
C717        C  0.18694817  0.20425573  0.88651100    -0.12400
C718        C  0.20373783  0.18757541  0.88930576     0.01500
H719        H  0.14798808  0.11788410  0.83721487     0.14500
H720        H  0.19888829  0.22915263  0.89862670     0.14500
C721        C  0.23702816  0.20554373  0.90634066     0.36100
C722        C  0.11626281  0.14688041  0.81768598     0.36000
N723        N  0.26373061  0.22004930  0.91971137    -0.44200
N724        N  0.09567585  0.13734095  0.79247522    -0.44200
C725        C  0.19127914  0.04685103  0.87073468    -0.00600
C726        C  0.16722781  0.02926538  0.83951524    -0.12500
C727        C  0.15046317  0.49477878  0.83637393     0.01600
C728        C  0.15627842  0.47609728  0.86612252     0.00900
C729        C  0.18268013  0.49412729  0.89436061    -0.12400
C730        C  0.19971164  0.02837293  0.89739249     0.01500
H731        H  0.16143461  0.04268072  0.81705557     0.14500
H732        H  0.19108107  0.48163241  0.91436569     0.14500
C733        C  0.22432313  0.04285021  0.93008790     0.36100
C734        C  0.12787916  0.47909515  0.80187736     0.36000
N735        N  0.24386797  0.05308437  0.95666630    -0.44200
N736        N  0.10972182  0.46621581  0.77430117    -0.44200
C737        C  0.38476166  0.25512691  0.94265476    -0.00600
C738        C  0.35261330  0.23645142  0.96070009    -0.12500
C739        C  0.34799580  0.23270142  0.50464939     0.01600
C740        C  0.37592306  0.24769607  0.53158900    -0.00700
C741        C  0.40766749  0.26077324  0.51336371    -0.12400
C742        C  0.41218244  0.26451474  0.96899605     0.01500
H743        H  0.33114660  0.22816462  0.94070080     0.14500
H744        H  0.42929391  0.27223579  0.53329766     0.14500
C745        C  0.44558986  0.28171589  0.95234720     0.36100
C746        C  0.31445145  0.21847777  0.52106210     0.36000
N747        N  0.47263198  0.29539680  0.93949097    -0.44200
N748        N  0.28758838  0.20765383  0.53395077    -0.44200
C749        C  0.47185864  0.33164396  0.85806088    -0.00600
C750        C  0.48870466  0.35732981  0.88711145    -0.12500
C751        C  0.02339572  0.37452840  0.89101455     0.01600
C752        C  0.04259209  0.36760948  0.86337160    -0.00700
C753        C  0.02583258  0.34183089  0.83433749    -0.12400
C754        C  0.49078479  0.32367064  0.83158051     0.01500
H755        H  0.47444396  0.36322687  0.90829672     0.14500
H756        H  0.04022607  0.33627276  0.81293481     0.14500
C757        C  0.47499252  0.29852384  0.79988367     0.36100
C758        C  0.03871781  0.39864241  0.92407885     0.36000
N759        N  0.46246210  0.27852840  0.77422033    -0.44200
N760        N  0.05111228  0.41791760  0.95059426    -0.44200
C761        C  0.36357549  0.32999586  0.85349880    -0.00600
C762        C  0.36058478  0.34479514  0.89038845    -0.12500
C763        C  0.34286907  0.36092728  0.89105741     0.01600
C764        C  0.32561995  0.36129013  0.85464442    -0.00700
C765        C  0.33288593  0.35096317  0.81653572    -0.12400
C766        C  0.35222856  0.33650040  0.81542679     0.01500
H767        H  0.37280104  0.34443494  0.91903782     0.14500
H768        H  0.32501071  0.35577975  0.78684879     0.14500
C769        C  0.36266558  0.33191743  0.77439458     0.36100
C770        C  0.34479376  0.37846358  0.92907586     0.36000
N771        N  0.37128026  0.32856457  0.74146350    -0.44200
N772        N  0.34673372  0.39258671  0.95963990    -0.44200
C773        C  0.16969467  0.03102156  0.64800207    -0.00600
C774        C  0.13836345  0.01110022  0.66813000    -0.12500
C775        C  0.11819240  0.47689255  0.66173347     0.01600
C776        C  0.12975734  0.46085345  0.63549880    -0.00700
C777        C  0.16242453  0.48044706  0.61850588    -0.12400
C778        C  0.18190033  0.01501637  0.62309537     0.01500
H779        H  0.12900913  0.02224761  0.68929992     0.14500
H780        H  0.17324504  0.46885849  0.60095575     0.14500
C781        C  0.21336358  0.03231933  0.60045585     0.36100
C782        C  0.08614114  0.46003222  0.68296684     0.36000
N783        N  0.23845828  0.04526946  0.58189709    -0.44200
N784        N  0.06041531  0.44741683  0.70000352    -0.44200
C785        C  0.23376920  0.10838553  0.56444630    -0.00600
C786        C  0.20602526  0.08636241  0.54068954    -0.12500
C787        C  0.20748927  0.08834919  0.99699119     0.01600
C788        C  0.23731016  0.11216013  0.97588751    -0.00700
C789        C  0.26613915  0.13160914  0.99987993    -0.12400
C790        C  0.26465264  0.12886692  0.54371949     0.01500
H791        H  0.18229074  0.07017940  0.55666064     0.14500
H792        H  0.28911979  0.14997008  0.98412443     0.14500
C793        C  0.29440339  0.14925859  0.56779696     0.36100
C794        C  0.17700844  0.06715762  0.97456531     0.36000
N795        N  0.31818354  0.16537074  0.58733598    -0.44200
N796        N  0.15232750  0.04997201  0.95721428    -0.44200
C797        C  0.12925265  0.16711755  0.65673312    -0.00600
C798        C  0.16399869  0.18565215  0.64849372    -0.12500
C799        C  0.18355691  0.17165430  0.65004422     0.01600
C800        C  0.16857443  0.13747346  0.65830610    -0.00700
C801        C  0.13467415  0.11973600  0.67102408    -0.12400
C802        C  0.11518285  0.13399079  0.67080535     0.01500
H803        H  0.17612158  0.21165151  0.64034774     0.14500
H804        H  0.12304879  0.09476804  0.68293215     0.14500
C805        C  0.08193183  0.11395118  0.68818365     0.36100
C806        C  0.21909121  0.19328763  0.64312192     0.36000
N807        N  0.05553843  0.09708887  0.70281532    -0.44200
N808        N  0.24754509  0.21074984  0.63780921    -0.44200
O809        O  0.14833046  0.77113830  0.22546352    -0.85800
O810        O  0.19839296  0.82659010  0.18262401    -0.82900
C811        C  0.21815226  0.85653396  0.17216762     0.97600
O812        O  0.22020237  0.87924003  0.19494596    -0.82900
O813        O  0.16112299  0.87688644  0.18752955    -0.85500
C814        C  0.12973728  0.86265461  0.18584702     1.02200
O815        O  0.11079394  0.83924616  0.21103587    -0.78300
O816        O  0.11278395  0.78264031  0.20146018    -0.78500
C817        C  0.12508475  0.76477557  0.20103394     1.02100
O818        O  0.17355510  0.80033674  0.30276055    -0.85800
O819        O  0.22956952  0.85139276  0.26100407    -0.82900
C820        C  0.23466905  0.87283025  0.28771964     0.97700
O821        O  0.21633460  0.88473686  0.28742386    -0.82900
O822        O  0.15970544  0.88714436  0.27530543    -0.85500
C823        C  0.13659244  0.86997837  0.30172473     1.02100
O824        O  0.12084020  0.83875167  0.30091624    -0.78300
O825        O  0.11983646  0.78007255  0.29377563    -0.78500
C826        C  0.14341651  0.78076313  0.31384571     1.02100
Cr827      Cr  0.18560463  0.81420862  0.24296104     1.93700
Cr828      Cr  0.18748862  0.87851785  0.23696428     1.93200
Cr829      Cr  0.11962939  0.81198132  0.25121247     1.39100
O830        O  0.16387695  0.83504755  0.24389473    -1.23600
C831        C  0.18738374  0.61925461  0.15623485     0.86000
C832        C  0.20686588  0.62810191  0.11424294    -0.54200
C833        C  0.22591527  0.61463737  0.10881945     0.08900
C834        C  0.22448067  0.59376086  0.14717074     0.19900
C835        C  0.16787027  0.58122174  0.15684114    -0.54900
C836        C  0.18679951  0.56740076  0.15241930     0.09000
C837        C  0.21363591  0.62939724  0.19026566    -0.54500
C838        C  0.23357498  0.61675959  0.18558846     0.09600
H839        H  0.20261669  0.64064451  0.08860650     0.14100
H840        H  0.24122055  0.58427197  0.14404686    -0.00100
H841        H  0.14104830  0.56599586  0.15631826     0.14400
H842        H  0.21696053  0.64644283  0.21516439     0.14200
C843        C  0.38116685  0.80988116  0.35647250     0.86000
C844        C  0.37372122  0.79014423  0.39791636    -0.54200
C845        C  0.38910087  0.77282428  0.40190809     0.08900
C846        C  0.41087470  0.77635545  0.36276867     0.19900
C847        C  0.41930313  0.83126159  0.35353987    -0.54900
C848        C  0.43511679  0.81419902  0.35662632     0.09000
C849        C  0.37108767  0.78320770  0.32297279    -0.54500
C850        C  0.38656089  0.76567519  0.32537181     0.09600
H851        H  0.35747580  0.78983152  0.42267270     0.14100
H852        H  0.42334448  0.76225937  0.36577349    -0.00100
H853        H  0.43277020  0.85793653  0.35000533     0.14400
H854        H  0.35125234  0.77688012  0.30087469     0.14200
C855        C  0.20593070  0.63488804  0.38005440     0.86000
C856        C  0.23787272  0.65136058  0.35383632    -0.54200
C857        C  0.25662827  0.63788464  0.35825784     0.08900
C858        C  0.24175269  0.60842066  0.39009926     0.19900
C859        C  0.18770272  0.59769769  0.36825241    -0.54900
C860        C  0.20626159  0.58337148  0.37398719     0.09000
C861        C  0.21655332  0.63518454  0.42561310    -0.54500
C862        C  0.23511324  0.62141577  0.43155766     0.09600
H863        H  0.24385276  0.67077715  0.33076114     0.14100
H864        H  0.25828078  0.59873559  0.39370115    -0.00100
H865        H  0.16175994  0.58322528  0.35935057     0.14400
H866        H  0.20750926  0.64306073  0.45191340     0.14200
C867        C  0.13612874  0.93742428  0.36733691     0.86000
C868        C  0.14605459  0.92201462  0.33261117    -0.54200
C869        C  0.12882155  0.88815739  0.33323543     0.08900
C870        C  0.10238944  0.87244383  0.36925765     0.19900
C871        C  0.09819602  0.92110579  0.36306388    -0.54900
C872        C  0.08033372  0.88727240  0.36393808     0.09000
C873        C  0.13904182  0.92207625  0.40877052    -0.54500
C874        C  0.12190798  0.88835216  0.41030164     0.09600
H875        H  0.16557710  0.93703207  0.30951615     0.14100
H876        H  0.08836660  0.84510040  0.36951169    -0.00100
H877        H  0.08625962  0.93515517  0.36061633     0.14400
H878        H  0.15047240  0.93629037  0.43696213     0.14200
C879        C  0.11348499  0.92320125  0.12874107     0.86000
C880        C  0.11943033  0.91283131  0.08548771    -0.54200
C881        C  0.10758512  0.87999936  0.08176341     0.08900
C882        C  0.08955542  0.85958684  0.12250222     0.19900
C883        C  0.07532494  0.90113388  0.13393254    -0.54900
C884        C  0.06218335  0.86767818  0.13191453     0.09000
C885        C  0.12765554  0.90988595  0.16051077    -0.54500
C886        C  0.11580598  0.87713813  0.15765413     0.09600
H887        H  0.13128991  0.92997354  0.05904612     0.14100
H888        H  0.08064930  0.83307765  0.12031147    -0.00100
H889        H  0.05928395  0.91087438  0.13468465     0.14400
H890        H  0.14635574  0.92556532  0.18340631     0.14200
C891        C  0.36412504  0.79423966  0.12170786     0.86000
C892        C  0.34976676  0.76478858  0.15295878    -0.54200
C893        C  0.36416751  0.74658196  0.15020897     0.08900
C894        C  0.39151748  0.75887190  0.11539161     0.19900
C895        C  0.40195995  0.81367460  0.12891503    -0.54900
C896        C  0.41667451  0.79547316  0.12669988     0.09000
C897        C  0.35961384  0.77809470  0.07878516    -0.54500
C898        C  0.37394746  0.75989185  0.07451650     0.09600
H899        H  0.33021825  0.75836499  0.17611196     0.14100
H900        H  0.40257442  0.74346664  0.11280255    -0.00100
H901        H  0.41583512  0.84003586  0.13440243     0.14400
H902        H  0.34718746  0.78206305  0.05284793     0.14200
C903        C  0.29427955  0.86700245  0.11768454     0.86000
C904        C  0.28636096  0.87162046  0.07213435    -0.54200
C905        C  0.26968398  0.88766849  0.06877681     0.08900
C906        C  0.26192984  0.89755416  0.11190508     0.19900
C907        C  0.31271549  0.90205597  0.13623633    -0.54900
C908        C  0.29658754  0.91885537  0.13227950     0.09000
C909        C  0.25968907  0.84855628  0.13882543    -0.54500
C910        C  0.24348000  0.86499865  0.13844349     0.09600
H911        H  0.29358825  0.86339023  0.04441549     0.14100
H912        H  0.24773642  0.90978048  0.10813729    -0.00100
H913        H  0.33755660  0.91319843  0.14908447     0.14400
H914        H  0.24893640  0.82482505  0.15461071     0.14200
C915        C  0.13662953  0.70742360  0.37219893     0.86000
C916        C  0.14021900  0.72205492  0.41613901    -0.54200
C917        C  0.12555332  0.73979718  0.42146089     0.08900
C918        C  0.10842275  0.74184002  0.38078013     0.19900
C919        C  0.09852030  0.68756581  0.36625972    -0.54900
C920        C  0.08333820  0.70537025  0.36951356     0.09000
C921        C  0.15033500  0.73675647  0.34178897    -0.54500
C922        C  0.13573613  0.75473350  0.34562750     0.09600
H923        H  0.15019560  0.71554486  0.44266863     0.14100
H924        H  0.09787011  0.75758410  0.38372917    -0.00100
H925        H  0.08416523  0.66101946  0.36326000     0.14400
H926        H  0.16916316  0.74200735  0.31775438     0.14200
C927        C  0.38227494  0.57489684  0.36434037     0.86000
C928        C  0.36927720  0.58970016  0.33343185    -0.54200
C929        C  0.38439451  0.62298900  0.33504376     0.08900
C930        C  0.41272439  0.63931374  0.36810896     0.19900
C931        C  0.42019236  0.59327059  0.35629900    -0.54900
C932        C  0.43681263  0.62713071  0.35756715     0.09000
C933        C  0.38012346  0.58758863  0.40777247    -0.54500
C934        C  0.39561563  0.62105032  0.41021135     0.09600
H935        H  0.34880459  0.57463103  0.31224911     0.14100
H936        H  0.42471479  0.66647507  0.36972994    -0.00100
H937        H  0.43286767  0.58001302  0.35611571     0.14400
H938        H  0.36972330  0.57169208  0.43558970     0.14200
C939        C  0.30468440  0.87726598  0.35500730     0.86000
C940        C  0.27935559  0.86678841  0.31921220    -0.54200
C941        C  0.26205871  0.88252881  0.31844056     0.08900
C942        C  0.27195457  0.90774541  0.35421213     0.19900
C943        C  0.32687418  0.91490591  0.35071310    -0.54900
C944        C  0.31012630  0.93107220  0.34958737     0.09000
C945        C  0.28287814  0.87107588  0.39460169    -0.54500
C946        C  0.26702060  0.88815541  0.39541070     0.09600
H947        H  0.27378560  0.84685800  0.29811947     0.14100
H948        H  0.25759534  0.92005178  0.35384225    -0.00100
H949        H  0.35386483  0.92762225  0.35081892     0.14400
H950        H  0.28256225  0.85712783  0.42198064     0.14200
C951        C  0.36588250  0.56455565  0.13469991     0.86000
C952        C  0.36721994  0.57676783  0.08942251    -0.54200
C953        C  0.38264787  0.61020051  0.08504618     0.08900
C954        C  0.39513578  0.62899037  0.12709470     0.19900
C955        C  0.40242540  0.58438137  0.14933892    -0.54900
C956        C  0.41778977  0.61800567  0.14486489     0.09000
C957        C  0.34975134  0.57953661  0.16125722    -0.54500
C958        C  0.36544309  0.61325347  0.15845910     0.09600
H959        H  0.35873579  0.56040534  0.06242990     0.14100
H960        H  0.40726167  0.65613613  0.12362460    -0.00100
H961        H  0.41523958  0.57288991  0.16157707     0.14400
H962        H  0.33054875  0.56545238  0.18492257     0.14200
C963        C  0.10979696  0.68475526  0.15172213     0.86000
C964        C  0.12405767  0.71444344  0.18098733    -0.54200
C965        C  0.11303148  0.73538598  0.17413486     0.08900
C966        C  0.08816258  0.72466573  0.13775608     0.19900
C967        C  0.07164725  0.66848587  0.15748662    -0.54900
C968        C  0.06030172  0.68930794  0.15052768     0.09000
C969        C  0.11674575  0.69944356  0.10693373    -0.54500
C970        C  0.10556979  0.71994358  0.09921005     0.09600
H971        H  0.14154577  0.71827793  0.20569934     0.14100
H972        H  0.07986920  0.74211293  0.13214907    -0.00100
H973        H  0.05421453  0.64315304  0.16571828     0.14400
H974        H  0.12849736  0.69297055  0.08240957     0.14200
O975        O  0.32625454  0.70186086  0.19443149    -0.85800
O976        O  0.27022973  0.65163250  0.23759558    -0.82900
C977        C  0.26324317  0.62849140  0.21279678     0.97600
O978        O  0.28152556  0.61659238  0.21192865    -0.82900
O979        O  0.33805214  0.61454648  0.21999623    -0.85500
C980        C  0.35959883  0.63158863  0.19187372     1.02200
O981        O  0.37649447  0.66282766  0.19360221    -0.78300
O982        O  0.37992968  0.72205300  0.20302672    -0.78500
C983        C  0.35634079  0.72110491  0.18282301     1.02100
O984        O  0.35307525  0.73134772  0.27138630    -0.85800
O985        O  0.30221400  0.67609477  0.31497007    -0.82900
C986        C  0.28247179  0.64616043  0.32573444     0.97700
O987        O  0.28056039  0.62312555  0.30389046    -0.82900
O988        O  0.33949481  0.62539760  0.30848114    -0.85500
C989        C  0.37078662  0.63869570  0.30851816     1.02100
O990        O  0.38938477  0.66184021  0.28288444    -0.78300
O991        O  0.38815717  0.71922084  0.29520809    -0.78500
C992        C  0.37591975  0.73722879  0.29637124     1.02100
Cr993      Cr  0.31476460  0.68840954  0.25455148     1.93700
Cr994      Cr  0.31196737  0.62352345  0.26047329     1.93200
Cr995      Cr  0.37998061  0.68969111  0.24451778     1.39100
O996        O  0.33581668  0.66700679  0.25309138    -1.23600
C997        C  0.02415919  0.67754312  0.15457233    -0.00600
C998        C  0.00505172  0.65519899  0.18760691    -0.12500
C999        C  0.46988703  0.63704732  0.18706209     0.01600
C1000       C  0.45369539  0.64143120  0.15302033    -0.00700
C1001       C  0.47249049  0.66716583  0.12405386    -0.12400
C1002       C  0.00752515  0.68552282  0.12434125     0.01500
H1003       H  0.01731554  0.65053228  0.21302723     0.14500
H1004       H  0.46016113  0.67199557  0.09891289     0.14500
C1005       C  0.02455530  0.71005039  0.09150069     0.36100
C1006       C  0.45050162  0.61576530  0.22207087     0.36000
N1007       N  0.03726291  0.72956674  0.06468265    -0.44200
N1008       N  0.43285531  0.59846756  0.24873681    -0.44200
C1009       C  0.40106764  0.63554444  0.45296214    -0.00600
C1010       C  0.42526801  0.63458859  0.47698027    -0.12500
C1011       C  0.42081141  0.62875804  0.02099487     0.01600
C1012       C  0.39293996  0.62590338  0.04228186    -0.00700
C1013       C  0.37111232  0.63158088  0.01939772    -0.12400
C1014       C  0.37501444  0.63612693  0.47420852     0.01500
H1015       H  0.44487931  0.63331384  0.46074052     0.14500
H1016       H  0.34954062  0.62924000  0.03533257     0.14500
C1017       C  0.34999895  0.63776158  0.45049852     0.36100
C1018       C  0.44228784  0.62004110  0.04139313     0.36000
N1019       N  0.33018339  0.63915188  0.43102075    -0.44200
N1020       N  0.45934360  0.61250908  0.05700152    -0.44200
C1021       C  0.36293067  0.53725176  0.36041228    -0.00600
C1022       C  0.37509956  0.52259777  0.33317443    -0.12500
C1023       C  0.35773862  0.98852130  0.32725672     0.01600
C1024       C  0.32753537  0.96780226  0.34970474    -0.00700
C1025       C  0.31390028  0.98248594  0.37385504    -0.12400
C1026       C  0.33040947  0.51662715  0.37804943     0.01500
H1027       H  0.39782696  0.53780720  0.31494525     0.14500
H1028       H  0.29020372  0.96726063  0.39019624     0.14500
C1029       C  0.31270265  0.52961972  0.39939587     0.36100
C1030       C  0.37051390  0.97579614  0.29613344     0.36000
N1031       N  0.29844115  0.53996785  0.41643571    -0.44200
N1032       N  0.38079743  0.96575805  0.27103968    -0.44200
C1033       C  0.10625459  0.73112119  0.05514644    -0.00600
C1034       C  0.13571671  0.75891346  0.03965215    -0.12500
C1035       C  0.14199514  0.76399190  0.49439469     0.01600
C1036       C  0.11691455  0.74308101  0.46569406    -0.00700
C1037       C  0.08670981  0.71672465  0.48201694    -0.12400
C1038       C  0.08236841  0.70931888  0.02598114     0.01500
H1039       H  0.15541802  0.77406188  0.06161549     0.14500
H1040       H  0.06868675  0.69855645  0.46050618     0.14500
C1041       C  0.05535247  0.67692775  0.03905117     0.36100
C1042       C  0.17610365  0.78535037  0.48024148     0.36000
N1043       N  0.03418174  0.65077294  0.04955383    -0.44200
N1044       N  0.20370730  0.80108369  0.46927516    -0.44200
C1045       C  0.47463096  0.64899051  0.35681337    -0.00600
C1046       C  0.49029225  0.67816749  0.38075779    -0.12500
C1047       C  0.02539826  0.69779705  0.38482912     0.01600
C1048       C  0.04617746  0.68920605  0.36324983    -0.00700
C1049       C  0.03062803  0.66195793  0.33631038    -0.12400
C1050       C  0.49583002  0.64095642  0.33488490     0.01500
H1051       H  0.47518029  0.68489414  0.39865280     0.14500
H1052       H  0.04574793  0.65559499  0.31766300     0.14500
C1053       C  0.48422155  0.61062183  0.31248359     0.36100
C1054       C  0.03835211  0.72533751  0.41318898     0.36000
N1055       N  0.47648040  0.58612279  0.29573441    -0.44200
N1056       N  0.04808026  0.74729519  0.43611620    -0.44200
C1057       C  0.34859723  0.52642189  0.13731628    -0.00600
C1058       C  0.31461645  0.50647939  0.14931528    -0.12500
C1059       C  0.29792739  0.97230819  0.14982330     0.01600
C1060       C  0.31428117  0.95584558  0.13778377    -0.00700
C1061       C  0.34830041  0.97560604  0.12649752    -0.12400
C1062       C  0.36460637  0.50974733  0.12409980     0.01500
H1063       H  0.30042737  0.51763330  0.15688756     0.14500
H1064       H  0.36160556  0.96395861  0.11642866     0.14500
C1065       C  0.39797208  0.52698606  0.10636840     0.36100
C1066       C  0.26346129  0.95497922  0.16328795     0.36000
N1067       N  0.42474278  0.54042122  0.09225986    -0.44200
N1068       N  0.23585377  0.94248929  0.17394134    -0.44200
C1069       C  0.26212857  0.89863724  0.43751736    -0.00600
C1070       C  0.29113583  0.92154960  0.45853161    -0.12500
C1071       C  0.29262553  0.92133243  0.00223031     0.01600
C1072       C  0.26462602  0.89771144  0.02628579    -0.00700
C1073       C  0.23401794  0.87814280  0.00566372    -0.12400
C1074       C  0.23242932  0.87946961  0.46113400     0.01500
H1075       H  0.31401696  0.93683295  0.44045735     0.14500
H1076       H  0.21206946  0.86042598  0.02381828     0.14500
C1077       C  0.20112529  0.85956506  0.43985109     0.36100
C1078       C  0.32473692  0.94259652  0.02091914     0.36000
N1079       N  0.17610329  0.84392246  0.42248389    -0.44200
N1080       N  0.35113883  0.95991125  0.03409432    -0.44200
C1081       C  0.34910702  0.81607134  0.12338924    -0.00600
C1082       C  0.32826479  0.81345911  0.15722969    -0.12500
C1083       C  0.31229096  0.83108895  0.15755559     0.01600
C1084       C  0.31448777  0.85028213  0.12179875    -0.00700
C1085       C  0.33862972  0.85627521  0.09062423    -0.12400
C1086       C  0.35615141  0.84003950  0.09148571     0.01500
H1087       H  0.32492550  0.79863881  0.18478600     0.14500
H1088       H  0.34421512  0.87398656  0.06541991     0.14500
C1089       C  0.38130425  0.84868841  0.05907002     0.36100
C1090       C  0.29518752  0.82969366  0.19621202     0.36000
N1091       N  0.40147897  0.85567379  0.03311993    -0.44200
N1092       N  0.28093727  0.82784590  0.22704535    -0.44200
C1093       C  0.02475075  0.84383972  0.13637118    -0.00600
C1094       C  0.00681867  0.85273264  0.16313788    -0.12500
C1095       C  0.47209766  0.83629844  0.16245843     0.01600
C1096       C  0.45349682  0.81020939  0.13387210    -0.00700
C1097       C  0.47082852  0.79842854  0.11131756    -0.12400
C1098       C  0.00586065  0.81441604  0.11305476     0.01500
H1099       H  0.02025875  0.87324283  0.18452133     0.14500
H1100       H  0.45722991  0.77682091  0.09191383     0.14500
C1101       C  0.02087782  0.79932465  0.09073977     0.36100
C1102       C  0.45633735  0.84586345  0.19356344     0.36000
N1103       N  0.03197779  0.78607120  0.07315611    -0.44200
N1104       N  0.44418389  0.85377404  0.21888505    -0.44200
C1105       C  0.11844546  0.87154606  0.45197872    -0.00600
C1106       C  0.14648475  0.88518434  0.47817988    -0.12500
C1107       C  0.14356655  0.88255362  0.02115608     0.01600
C1108       C  0.11156486  0.86777497  0.04021507    -0.00700
C1109       C  0.08362190  0.84982462  0.01450614    -0.12400
C1110       C  0.08691802  0.85035944  0.47089646     0.01500
H1111       H  0.17119687  0.90042226  0.46419604     0.14500
H1112       H  0.05890309  0.83870376  0.02802398     0.14500
C1113       C  0.05849833  0.82882408  0.44573554     0.36100
C1114       C  0.17335786  0.89991323  0.04613196     0.36000
N1115       N  0.03655711  0.81052102  0.42485133    -0.44200
N1116       N  0.19720324  0.91400429  0.06613803    -0.44200
C1117       C  0.18819385  0.65380092  0.37478943    -0.00600
C1118       C  0.15871471  0.64098803  0.35145657    -0.12500
C1119       C  0.14290779  0.65876129  0.34650319     0.01600
C1120       C  0.15495794  0.68889835  0.36817680    -0.00700
C1121       C  0.18657971  0.70342595  0.38648081    -0.12400
C1122       C  0.20323258  0.68665439  0.38963185     0.01500
H1123       H  0.14875305  0.61795977  0.33489193     0.14500
H1124       H  0.19830384  0.72813332  0.39917665     0.14500
C1125       C  0.23609936  0.70429278  0.40791565     0.36100
C1126       C  0.11756915  0.64754212  0.31468072     0.36000
N1127       N  0.26244955  0.71849517  0.42234563    -0.44200
N1128       N  0.09772986  0.63868258  0.28854138    -0.44200
C1129       C  0.19166612  0.54656263  0.36954892    -0.00600
C1130       C  0.16755308  0.52891154  0.33842827    -0.12500
C1131       C  0.15072448  0.99434034  0.33575241     0.01600
C1132       C  0.15660572  0.97579325  0.36562440     0.00900
C1133       C  0.18321393  0.99387563  0.39349342    -0.12400
C1134       C  0.20015290  0.52813786  0.39624947     0.01500
H1135       H  0.16174010  0.54226287  0.31588715     0.14500
H1136       H  0.19168863  0.98138197  0.41340217     0.14500
C1137       C  0.22485879  0.54262793  0.42881651     0.36100
C1138       C  0.12825420  0.97850848  0.30120398     0.36000
N1139       N  0.24447189  0.55283829  0.45531136    -0.44200
N1140       N  0.11020995  0.96542828  0.27359108    -0.44200
C1141       C  0.38524029  0.75485582  0.44252508    -0.00600
C1142       C  0.35303741  0.73576168  0.46034968    -0.12500
C1143       C  0.34740695  0.73311491  0.00507410     0.01600
C1144       C  0.37556925  0.74772164  0.03165323    -0.00700
C1145       C  0.40702418  0.75973994  0.01303168    -0.12400
C1146       C  0.41262368  0.76461404  0.46906780     0.01500
H1147       H  0.33160798  0.72724251  0.44020857     0.14500
H1148       H  0.42881533  0.77063926  0.03266043     0.14500
C1149       C  0.44612269  0.78244483  0.45274244     0.36100
C1150       C  0.31406050  0.71958388  0.02184228     0.36000
N1151       N  0.47328117  0.79669184  0.44028811    -0.44200
N1152       N  0.28734442  0.70927737  0.03495180    -0.44200
C1153       C  0.47234957  0.83179391  0.35804447    -0.00600
C1154       C  0.48928832  0.85763226  0.38688681    -0.12500
C1155       C  0.02395780  0.87476204  0.39079083     0.01600
C1156       C  0.04300262  0.86746940  0.36342072    -0.00700
C1157       C  0.02613757  0.84150741  0.33468108    -0.12400
C1158       C  0.49122254  0.82368054  0.33165945     0.01500
H1159       H  0.47509121  0.86361400  0.40806391     0.14500
H1160       H  0.04043588  0.83564794  0.31353771     0.14500
C1161       C  0.47536827  0.79825534  0.30031753     0.36100
C1162       C  0.03938585  0.89884668  0.42387416     0.36000
N1163       N  0.46281794  0.77800633  0.27496372    -0.44200
N1164       N  0.05188610  0.91805830  0.45043835    -0.44200
C1165       C  0.36391546  0.82995495  0.35420070    -0.00600
C1166       C  0.36057663  0.84431028  0.39131509    -0.12500
C1167       C  0.34278741  0.86036616  0.39217409     0.01600
C1168       C  0.32581989  0.86111029  0.35566761    -0.00700
C1169       C  0.33349714  0.85129671  0.31742230    -0.12400
C1170       C  0.35287586  0.83687264  0.31617743     0.01500
H1171       H  0.37262031  0.84371102  0.42000527     0.14500
H1172       H  0.32584009  0.85643807  0.28777681     0.14500
C1173       C  0.36362716  0.83269492  0.27513285     0.36100
C1174       C  0.34445314  0.87748012  0.43049688     0.36000
N1175       N  0.37251637  0.82968327  0.24220485    -0.44200
N1176       N  0.34620872  0.89122046  0.46136018    -0.44200
C1177       C  0.17028281  0.53056194  0.14822599    -0.00600
C1178       C  0.13941055  0.51007646  0.16912137    -0.12500
C1179       C  0.11935364  0.97641334  0.16100126     0.01600
C1180       C  0.13083256  0.96089803  0.13365337    -0.00700
C1181       C  0.16328607  0.98092893  0.11615448    -0.12400
C1182       C  0.18239501  0.51522098  0.12184847     0.01500
H1183       H  0.13020042  0.52070822  0.19138360     0.14500
H1184       H  0.17419953  0.96976812  0.09788420     0.14500
C1185       C  0.21358162  0.53318728  0.09868262     0.36100
C1186       C  0.08741087  0.95906081  0.18249827     0.36000
N1187       N  0.23847849  0.54669111  0.07969818    -0.44200
N1188       N  0.06170957  0.94597649  0.19963911    -0.44200
C1189       C  0.23277080  0.60914383  0.06483178    -0.00600
C1190       C  0.20515319  0.58743970  0.04066588    -0.12500
C1191       C  0.20729129  0.58725627  0.49662003     0.01600
C1192       C  0.23701288  0.61106412  0.47534597    -0.00700
C1193       C  0.26603297  0.63021578  0.49910193    -0.12400
C1194       C  0.26378887  0.62980441  0.04451217     0.01500
H1195       H  0.18129706  0.57119669  0.05634391     0.14500
H1196       H  0.28900479  0.64843542  0.48320387     0.14500
C1197       C  0.29325136  0.65031270  0.06901916     0.36100
C1198       C  0.17677458  0.56599376  0.47430118     0.36000
N1199       N  0.31674481  0.66656322  0.08897513    -0.44200
N1200       N  0.15211082  0.54873611  0.45695726    -0.44200
C1201       C  0.12760307  0.66561100  0.15806876    -0.00600
C1202       C  0.16267415  0.68438847  0.15268163    -0.12500
C1203       C  0.18213725  0.67030742  0.15446393     0.01600
C1204       C  0.16692267  0.63585541  0.16049717    -0.00700
C1205       C  0.13232126  0.61743899  0.16934146    -0.12400
C1206       C  0.11268309  0.63149976  0.16783434     0.01500
H1207       H  0.17517442  0.71068579  0.14626978     0.14500
H1208       H  0.11979023  0.59172377  0.17803156     0.14500
C1209       C  0.07764034  0.60914111  0.17634646     0.36100
C1210       C  0.21784066  0.69211181  0.14943342     0.36000
N1211       N  0.04975743  0.58996125  0.18344033    -0.44200
N1212       N  0.24641531  0.70967374  0.14554844    -0.44200
O1213       O  0.14761923  0.77073678  0.72585326    -0.85800
O1214       O  0.19783845  0.82600832  0.68274059    -0.82900
C1215       C  0.21758499  0.85591485  0.67209900     0.97600
O1216       O  0.21970520  0.87873722  0.69469578    -0.82900
O1217       O  0.16074821  0.87667167  0.68735411    -0.85500
C1218       C  0.12936646  0.86255553  0.68587639     1.02200
O1219       O  0.11043779  0.83909559  0.71099373    -0.78300
O1220       O  0.11226279  0.78232926  0.70147082    -0.78500
C1221       C  0.12456207  0.76445331  0.70109007     1.02100
O1222       O  0.17310337  0.80041599  0.80301682    -0.85800
O1223       O  0.22918235  0.85108861  0.76099942    -0.82900
C1224       C  0.23449359  0.87275304  0.78748734     0.97700
O1225       O  0.21617584  0.88468151  0.78713540    -0.82900
O1226       O  0.15956590  0.88718356  0.77503443    -0.85500
C1227       C  0.13640622  0.87008115  0.80141600     1.02100
O1228       O  0.12059106  0.83883759  0.80070841    -0.78300
O1229       O  0.11937525  0.78000739  0.79398487    -0.78500
C1230       C  0.14299204  0.78089041  0.81421770     1.02100
Cr1231     Cr  0.18508021  0.81389917  0.74312782     1.93700
Cr1232     Cr  0.18718420  0.87831514  0.73672670     1.93200
Cr1233     Cr  0.11922258  0.81184335  0.75118992     1.39100
O1234       O  0.16346984  0.83484751  0.74383570    -1.23600
C1235       C  0.18887898  0.62037425  0.65438372     0.86000
C1236       C  0.20855954  0.62844122  0.61259378    -0.54200
C1237       C  0.22707064  0.61428217  0.60808194     0.08900
C1238       C  0.22480334  0.59350023  0.64701261     0.19900
C1239       C  0.16860682  0.58235527  0.65543741    -0.54900
C1240       C  0.18689787  0.56777911  0.65194867     0.09000
C1241       C  0.21482789  0.63034680  0.68871690    -0.54500
C1242       C  0.23412669  0.61693651  0.68498388     0.09600
H1243       H  0.20472373  0.64086066  0.58641091     0.14100
H1244       H  0.24110946  0.58346989  0.64468251    -0.00100
H1245       H  0.14172206  0.56781663  0.65427957     0.14400
H1246       H  0.21842390  0.64782819  0.71313006     0.14200
C1247       C  0.38077128  0.80947324  0.85644571     0.86000
C1248       C  0.37279986  0.78945633  0.89773267    -0.54200
C1249       C  0.38801555  0.77197838  0.90199048     0.08900
C1250       C  0.41015560  0.77566582  0.86317198     0.19900
C1251       C  0.41894629  0.83073754  0.85424502    -0.54900
C1252       C  0.43457298  0.81351015  0.85753418     0.09000
C1253       C  0.37096024  0.78299592  0.82273343    -0.54500
C1254       C  0.38628836  0.76534681  0.82535023     0.09600
H1255       H  0.35643998  0.78922666  0.92225528     0.14100
H1256       H  0.42248981  0.76144726  0.86623383    -0.00100
H1257       H  0.43256666  0.85743523  0.85096772     0.14400
H1258       H  0.35131905  0.77678658  0.80037791     0.14200
C1259       C  0.20636279  0.63587572  0.87958777     0.86000
C1260       C  0.23808106  0.65164481  0.85301339    -0.54200
C1261       C  0.25663036  0.63798201  0.85797167     0.08900
C1262       C  0.24169287  0.60897697  0.89056694     0.19900
C1263       C  0.18773644  0.59847346  0.86876030    -0.54900
C1264       C  0.20605012  0.58394975  0.87486428     0.09000
C1265       C  0.21730509  0.63688773  0.92512227    -0.54500
C1266       C  0.23550558  0.62280896  0.93162924     0.09600
H1267       H  0.24413890  0.67081006  0.82950491     0.14100
H1268       H  0.25799875  0.59906619  0.89456364    -0.00100
H1269       H  0.16176331  0.58402889  0.86002661     0.14400
H1270       H  0.20856841  0.64535003  0.95110821     0.14200
C1271       C  0.13603701  0.93749334  0.86739502     0.86000
C1272       C  0.14592374  0.92218497  0.83241600    -0.54200
C1273       C  0.12864972  0.88830660  0.83285060     0.08900
C1274       C  0.10223187  0.87248966  0.86881760     0.19900
C1275       C  0.09809394  0.92120368  0.86316259    -0.54900
C1276       C  0.08019965  0.88736369  0.86376671     0.09000
C1277       C  0.13894866  0.92191920  0.90863510    -0.54500
C1278       C  0.12181351  0.88819130  0.90984510     0.09600
H1279       H  0.16547397  0.93725582  0.80937976     0.14100
H1280       H  0.08818190  0.84514467  0.86889937    -0.00100
H1281       H  0.08617956  0.93528176  0.86088858     0.14400
H1282       H  0.15048577  0.93595132  0.93690508     0.14200
C1283       C  0.11250155  0.92329645  0.63046563     0.86000
C1284       C  0.11803791  0.91319734  0.58676548    -0.54200
C1285       C  0.10639459  0.88044479  0.58261484     0.08900
C1286       C  0.08884159  0.85979080  0.62333643     0.19900
C1287       C  0.07440264  0.90102603  0.63635147    -0.54900
C1288       C  0.06140540  0.86761158  0.63369816     0.09000
C1289       C  0.12713958  0.90992514  0.66145793    -0.54500
C1290       C  0.11539030  0.87722775  0.65813485     0.09600
H1291       H  0.12982889  0.93056194  0.56051679     0.14100
H1292       H  0.08012017  0.83335242  0.62080082    -0.00100
H1293       H  0.05820703  0.91055283  0.63766347     0.14400
H1294       H  0.14598669  0.92550701  0.68426079     0.14200
C1295       C  0.36338870  0.79341588  0.62098528     0.86000
C1296       C  0.34905229  0.76399926  0.65229746    -0.54200
C1297       C  0.36367973  0.74598405  0.64985357     0.08900
C1298       C  0.39116103  0.75836991  0.61523378     0.19900
C1299       C  0.40121060  0.81304720  0.62844356    -0.54900
C1300       C  0.41608940  0.79498921  0.62654005     0.09000
C1301       C  0.35910758  0.77720626  0.57813819    -0.54500
C1302       C  0.37371712  0.75923466  0.57417241     0.09600
H1303       H  0.32934957  0.75747381  0.67525814     0.14100
H1304       H  0.40236849  0.74308797  0.61287275    -0.00100
H1305       H  0.41494810  0.83940771  0.63393222     0.14400
H1306       H  0.34669746  0.78099052  0.55201386     0.14200
C1307       C  0.29362289  0.86635008  0.61749466     0.86000
C1308       C  0.28570817  0.87106264  0.57199333    -0.54200
C1309       C  0.26907579  0.88714801  0.56874751     0.08900
C1310       C  0.26123998  0.89688046  0.61188153     0.19900
C1311       C  0.31202023  0.90138351  0.63619256    -0.54900
C1312       C  0.29585783  0.91817895  0.63231428     0.09000
C1313       C  0.25902780  0.84784313  0.63862791    -0.54500
C1314       C  0.24279800  0.86427239  0.63828934     0.09600
H1315       H  0.29294176  0.86292135  0.54419482     0.14100
H1316       H  0.24698482  0.90903813  0.60809437    -0.00100
H1317       H  0.33685798  0.91251437  0.64904126     0.14400
H1318       H  0.24833929  0.82413751  0.65446773     0.14200
C1319       C  0.13681634  0.70805004  0.87296348     0.86000
C1320       C  0.14106530  0.72310052  0.91672157    -0.54200
C1321       C  0.12627158  0.74071357  0.92237867     0.08900
C1322       C  0.10862323  0.74243495  0.88194992     0.19900
C1323       C  0.09861959  0.68808886  0.86794956    -0.54900
C1324       C  0.08345906  0.70588870  0.87122873     0.09000
C1325       C  0.15004824  0.73706817  0.84217880    -0.54500
C1326       C  0.13548909  0.75504968  0.84621326     0.09600
H1327       H  0.15136224  0.71672367  0.94301555     0.14100
H1328       H  0.09805598  0.75816417  0.88503689    -0.00100
H1329       H  0.08417428  0.66150610  0.86558278     0.14400
H1330       H  0.16858707  0.74214047  0.81779117     0.14200
C1331       C  0.38224615  0.57523548  0.86535419     0.86000
C1332       C  0.36951169  0.58999045  0.83399959    -0.54200
C1333       C  0.38460120  0.62327939  0.83547526     0.08900
C1334       C  0.41268393  0.63966992  0.86888562     0.19900
C1335       C  0.42022509  0.59361087  0.85783805    -0.54900
C1336       C  0.43682911  0.62746925  0.85891800     0.09000
C1337       C  0.37971567  0.58797606  0.90856169    -0.54500
C1338       C  0.39524587  0.62145387  0.91090217     0.09600
H1339       H  0.34917848  0.57487744  0.81265557     0.14100
H1340       H  0.42469738  0.66684106  0.87041906    -0.00100
H1341       H  0.43292459  0.58037432  0.85811291     0.14400
H1342       H  0.36917076  0.57211220  0.93638663     0.14200
C1343       C  0.30470189  0.87728704  0.85455537     0.86000
C1344       C  0.27941127  0.86692921  0.81872195    -0.54200
C1345       C  0.26209171  0.88265052  0.81805188     0.08900
C1346       C  0.27205208  0.90784653  0.85394514     0.19900
C1347       C  0.32693882  0.91492692  0.85044486    -0.54900
C1348       C  0.31027061  0.93117813  0.84941003     0.09000
C1349       C  0.28288720  0.87102770  0.89414961    -0.54500
C1350       C  0.26707864  0.88814309  0.89509225     0.09600
H1351       H  0.27382345  0.84702521  0.79757344     0.14100
H1352       H  0.25771731  0.92017759  0.85367289    -0.00100
H1353       H  0.35391616  0.92756287  0.85075610     0.14400
H1354       H  0.28257359  0.85701972  0.92146242     0.14200
C1355       C  0.36561372  0.56430927  0.63385081     0.86000
C1356       C  0.36670643  0.57666516  0.58873403    -0.54200
C1357       C  0.38234674  0.61013458  0.58448462     0.08900
C1358       C  0.39522004  0.62880645  0.62662452     0.19900
C1359       C  0.40226259  0.58389957  0.64804843    -0.54900
C1360       C  0.41784913  0.61756005  0.64384730     0.09000
C1361       C  0.34984677  0.57938760  0.66093207    -0.54500
C1362       C  0.36567818  0.61312041  0.65831996     0.09600
H1363       H  0.35803958  0.56036031  0.56168393     0.14100
H1364       H  0.40746783  0.65597366  0.62333165    -0.00100
H1365       H  0.41498222  0.57218517  0.65980802     0.14400
H1366       H  0.33066255  0.56528104  0.68461507     0.14200
C1367       C  0.11122072  0.68569550  0.65002485     0.86000
C1368       C  0.12461939  0.71485143  0.67996872    -0.54200
C1369       C  0.11289043  0.73526795  0.67371926     0.08900
C1370       C  0.08819380  0.72452845  0.63705187     0.19900
C1371       C  0.07286943  0.66834860  0.65473444    -0.54900
C1372       C  0.06078637  0.68868251  0.64875693     0.09000
C1373       C  0.11820296  0.70098449  0.60556814    -0.54500
C1374       C  0.10626699  0.72091249  0.59829416     0.09600
H1375       H  0.14224956  0.71882406  0.70454613     0.14100
H1376       H  0.07938953  0.74160693  0.63192434    -0.00100
H1377       H  0.05581531  0.64231809  0.65976461     0.14400
H1378       H  0.13029199  0.69510739  0.58080982     0.14200
O1379       O  0.32598787  0.70142474  0.69439457    -0.85800
O1380       O  0.27023147  0.65117637  0.73783603    -0.82900
C1381       C  0.26345922  0.62828603  0.71269432     0.97600
O1382       O  0.28174132  0.61638339  0.71186263    -0.82900
O1383       O  0.33833895  0.61440369  0.72003867    -0.85500
C1384       C  0.35982412  0.63144481  0.69181803     1.02200
O1385       O  0.37661375  0.66268682  0.69347615    -0.78300
O1386       O  0.37972397  0.72176109  0.70277003    -0.78500
C1387       C  0.35602911  0.72068053  0.68263799     1.02100
O1388       O  0.35304537  0.73114911  0.77111239    -0.85800
O1389       O  0.30250960  0.67592867  0.81502381    -0.82900
C1390       C  0.28262200  0.64602404  0.82575657     0.97700
O1391       O  0.28062904  0.62294182  0.80390289    -0.82900
O1392       O  0.33967897  0.62544518  0.80858058    -0.85500
C1393       C  0.37098184  0.63883223  0.80867698     1.02100
O1394       O  0.38954517  0.66185490  0.78286581    -0.78300
O1395       O  0.38812081  0.71907948  0.79504498    -0.78500
C1396       C  0.37581428  0.73702071  0.79621238     1.02100
Cr1397     Cr  0.31475065  0.68811488  0.75455113     1.93700
Cr1398     Cr  0.31213060  0.62335463  0.76049187     1.93200
Cr1399     Cr  0.38002277  0.68956624  0.74436578     1.39100
O1400       O  0.33588695  0.66680980  0.75300462    -1.23600
C1401       C  0.02436899  0.67601816  0.65257057    -0.00600
C1402       C  0.00539385  0.65264488  0.68470566    -0.12500
C1403       C  0.47025978  0.63569702  0.68514809     0.01600
C1404       C  0.45390863  0.64073445  0.65183831    -0.00700
C1405       C  0.47269183  0.66690996  0.62340226    -0.12400
C1406       C  0.00752403  0.68474510  0.62361389     0.01500
H1407       H  0.01779121  0.64724579  0.70918330     0.14500
H1408       H  0.46032081  0.67215371  0.59875063     0.14500
C1409       C  0.02432737  0.70993919  0.59147133     0.36100
C1410       C  0.45110057  0.61374205  0.71975477     0.36000
N1411       N  0.03687370  0.72993116  0.56516679    -0.44200
N1412       N  0.43366228  0.59585468  0.74613144    -0.44200
C1413       C  0.40080664  0.63594538  0.95365258    -0.00600
C1414       C  0.42523752  0.63517391  0.97739837    -0.12500
C1415       C  0.42070204  0.62836610  0.52061082     0.01600
C1416       C  0.39288034  0.62581217  0.54167275    -0.00700
C1417       C  0.37125533  0.63160269  0.51844271    -0.12400
C1418       C  0.37467582  0.63620768  0.97519301     0.01500
H1419       H  0.44490499  0.63412761  0.96094744     0.14500
H1420       H  0.34970285  0.62947191  0.53414566     0.14500
C1421       C  0.34931903  0.63749618  0.95184285     0.36100
C1422       C  0.44196314  0.61949329  0.54126650     0.36000
N1423       N  0.32915801  0.63856971  0.93275753    -0.44200
N1424       N  0.45888096  0.61184120  0.55700373    -0.44200
C1425       C  0.36297878  0.53759157  0.86142874    -0.00600
C1426       C  0.37540850  0.52305197  0.83443335    -0.12500
C1427       C  0.35827632  0.98877018  0.82795449     0.01600
C1428       C  0.32781960  0.96796167  0.84990016    -0.00700
C1429       C  0.31409730  0.98261088  0.87397860    -0.12400
C1430       C  0.33030076  0.51688888  0.87858474     0.01500
H1431       H  0.39830787  0.53833653  0.81655503     0.14500
H1432       H  0.29028890  0.96735340  0.89005159     0.14500
C1433       C  0.31239768  0.52978887  0.89966251     0.36100
C1434       C  0.37146516  0.97619960  0.79719453     0.36000
N1435       N  0.29794454  0.54003257  0.91646170    -0.44200
N1436       N  0.38215719  0.96632228  0.77244735    -0.44200
C1437       C  0.10635696  0.73184945  0.55425223    -0.00600
C1438       C  0.13574672  0.75945103  0.53821229    -0.12500
C1439       C  0.14227720  0.76389270  0.99591808     0.01600
C1440       C  0.11738659  0.74330731  0.96679410    -0.00700
C1441       C  0.08714782  0.71666177  0.98264710    -0.12400
C1442       C  0.08218765  0.70982396  0.52546694     0.01500
H1443       H  0.15564312  0.77478230  0.55985287     0.14500
H1444       H  0.06928568  0.69868300  0.96084749     0.14500
C1445       C  0.05524037  0.67751461  0.53891427     0.36100
C1446       C  0.17651629  0.78521672  0.98226847     0.36000
N1447       N  0.03404868  0.65139451  0.54950958    -0.44200
N1448       N  0.20422804  0.80084631  0.97173195    -0.44200
C1449       C  0.47464567  0.64931076  0.85823793    -0.00600
C1450       C  0.49036193  0.67845096  0.88225782    -0.12500
C1451       C  0.02550247  0.69820618  0.88669629     0.01600
C1452       C  0.04630030  0.68966770  0.86508511    -0.00700
C1453       C  0.03080382  0.66242542  0.83814245    -0.12400
C1454       C  0.49578198  0.64122564  0.83627645     0.01500
H1455       H  0.47526202  0.68519328  0.90016488     0.14500
H1456       H  0.04595135  0.65608186  0.81952097     0.14500
C1457       C  0.48408338  0.61081298  0.81404346     0.36100
C1458       C  0.03848289  0.72568252  0.91517077     0.36000
N1459       N  0.47634251  0.58618773  0.79765532    -0.44200
N1460       N  0.04829111  0.74757938  0.93821308    -0.44200
C1461       C  0.34817380  0.52614904  0.63636522    -0.00600
C1462       C  0.31422164  0.50632836  0.64853054    -0.12500
C1463       C  0.29709132  0.97168824  0.64949227     0.01600
C1464       C  0.31350040  0.95519200  0.63777920    -0.00700
C1465       C  0.34754186  0.97495206  0.62665317    -0.12400
C1466       C  0.36404845  0.50932825  0.62318409     0.01500
H1467       H  0.30012236  0.51760099  0.65601779     0.14500
H1468       H  0.36089960  0.96330158  0.61681499     0.14500
C1469       C  0.39725029  0.52634157  0.60496504     0.36100
C1470       C  0.26253861  0.95437489  0.66258062     0.36000
N1471       N  0.42388798  0.53955374  0.59046558    -0.44200
N1472       N  0.23484544  0.94184765  0.67285626    -0.44200
C1473       C  0.26212456  0.89843823  0.93732707    -0.00600
C1474       C  0.29104952  0.92166588  0.95823473    -0.12500
C1475       C  0.29259874  0.92101491  0.50250520     0.01600
C1476       C  0.26436037  0.89759449  0.52638667    -0.00700
C1477       C  0.23371371  0.87855681  0.50567990    -0.12400
C1478       C  0.23258562  0.87889207  0.96110534     0.01500
H1479       H  0.31382944  0.93716852  0.94007721     0.14500
H1480       H  0.21159011  0.86106870  0.52373452     0.14500
C1481       C  0.20133384  0.85837695  0.93994885     0.36100
C1482       C  0.32479013  0.94170576  0.52129866     0.36000
N1483       N  0.17636384  0.84219575  0.92266850    -0.44200
N1484       N  0.35126416  0.95851360  0.53454586    -0.44200
C1485       C  0.34822787  0.81513187  0.62251865    -0.00600
C1486       C  0.32768407  0.81275051  0.65661109    -0.12500
C1487       C  0.31176263  0.83043464  0.65711298     0.01600
C1488       C  0.31382369  0.84959061  0.62139087    -0.00700
C1489       C  0.33769302  0.85535133  0.58991238    -0.12400
C1490       C  0.35506235  0.83895577  0.59048688     0.01500
H1491       H  0.32456460  0.79806897  0.68424399     0.14500
H1492       H  0.34321014  0.87302166  0.56467951     0.14500
C1493       C  0.37984973  0.84733539  0.55764327     0.36100
C1494       C  0.29479486  0.82907364  0.69587881     0.36000
N1495       N  0.39968274  0.85411123  0.53128123    -0.44200
N1496       N  0.28065489  0.82721258  0.72682300    -0.44200
C1497       C  0.02398871  0.84357082  0.63784516    -0.00600
C1498       C  0.00576510  0.85205486  0.66471318    -0.12500
C1499       C  0.47125552  0.83581567  0.66281217     0.01600
C1500       C  0.45287057  0.80981593  0.63404395    -0.00700
C1501       C  0.47037118  0.79815035  0.61164653    -0.12400
C1502       C  0.00537503  0.81437091  0.61401690     0.01500
H1503       H  0.01896819  0.87235736  0.68645475     0.14500
H1504       H  0.45692893  0.77657816  0.59215285     0.14500
C1505       C  0.02064263  0.79964099  0.59143091     0.36100
C1506       C  0.45529701  0.84536539  0.69362482     0.36000
N1507       N  0.03194117  0.78666754  0.57361075    -0.44200
N1508       N  0.44305146  0.85332656  0.71874138    -0.44200
C1509       C  0.11863648  0.87108906  0.95115068    -0.00600
C1510       C  0.14687121  0.88447280  0.97695954    -0.12500
C1511       C  0.14285584  0.88342511  0.52233924     0.01600
C1512       C  0.11071498  0.86854935  0.54099275    -0.00700
C1513       C  0.08297426  0.85046444  0.51500490    -0.12400
C1514       C  0.08723211  0.84989812  0.97033167     0.01500
H1515       H  0.17148593  0.89971192  0.96271239     0.14500
H1516       H  0.05814740  0.83921520  0.52824198     0.14500
C1517       C  0.05857175  0.82869984  0.94534881     0.36100
C1518       C  0.17245443  0.90082497  0.54766260     0.36000
N1519       N  0.03643310  0.81068146  0.92452646    -0.44200
N1520       N  0.19614150  0.91490455  0.56795514    -0.44200
C1521       C  0.18880385  0.65490303  0.87395792    -0.00600
C1522       C  0.15865722  0.64152659  0.85203201    -0.12500
C1523       C  0.14261450  0.65907206  0.84756121     0.01600
C1524       C  0.15514142  0.68958381  0.86846512    -0.00700
C1525       C  0.18731044  0.70462216  0.88526064    -0.12400
C1526       C  0.20423156  0.68807448  0.88770361     0.01500
H1527       H  0.14822568  0.61815652  0.83620627     0.14500
H1528       H  0.19925299  0.72954406  0.89729390     0.14500
C1529       C  0.23771981  0.70622193  0.90411155     0.36100
C1530       C  0.11635981  0.64706741  0.81695184     0.36000
N1531       N  0.26459942  0.72089348  0.91690705    -0.44200
N1532       N  0.09570318  0.63752162  0.79183631    -0.44200
C1533       C  0.19119804  0.54707193  0.87061533    -0.00600
C1534       C  0.16719654  0.52946886  0.83934249    -0.12500
C1535       C  0.15061128  0.99459527  0.83638776     0.01600
C1536       C  0.15650113  0.97591136  0.86604505     0.00900
C1537       C  0.18298446  0.99392340  0.89416196    -0.12400
C1538       C  0.19942208  0.52858095  0.89754403     0.01500
H1539       H  0.16150544  0.54287816  0.81674091     0.14500
H1540       H  0.19143623  0.98139379  0.91402576     0.14500
C1541       C  0.22380953  0.54306102  0.93049532     0.36100
C1542       C  0.12814098  0.97895441  0.80176768     0.36000
N1543       N  0.24316239  0.55329719  0.95729817    -0.44200
N1544       N  0.11010504  0.96612214  0.77406424    -0.44200
C1545       C  0.38390994  0.75399426  0.94272188    -0.00600
C1546       C  0.35181662  0.73586344  0.96102516    -0.12500
C1547       C  0.34824594  0.73249363  0.50435623     0.01600
C1548       C  0.37614191  0.74758073  0.53132818    -0.00700
C1549       C  0.40791971  0.76084672  0.51313360    -0.12400
C1550       C  0.41131927  0.76288882  0.96885184     0.01500
H1551       H  0.33030768  0.72776090  0.94117268     0.14500
H1552       H  0.42952699  0.77241508  0.53307766     0.14500
C1553       C  0.44452031  0.77874543  0.95172278     0.36100
C1554       C  0.31466888  0.71795229  0.52079213     0.36000
N1555       N  0.47128533  0.79115891  0.93815595    -0.44200
N1556       N  0.28777331  0.70685057  0.53371900    -0.44200
C1557       C  0.47176262  0.83088518  0.85925515    -0.00600
C1558       C  0.48866356  0.85616822  0.88881204    -0.12500
C1559       C  0.02373921  0.87468760  0.89061856     0.01600
C1560       C  0.04285060  0.86753812  0.86315778    -0.00700
C1561       C  0.02602516  0.84163961  0.83430368    -0.12400
C1562       C  0.49064784  0.82330129  0.83209466     0.01500
H1563       H  0.47443889  0.86177889  0.91046956     0.14500
H1564       H  0.04036310  0.83591572  0.81303468     0.14500
C1565       C  0.47479445  0.79855118  0.79994157     0.36100
C1566       C  0.03912440  0.89889821  0.92356367     0.36000
N1567       N  0.46222619  0.77887989  0.77390839    -0.44200
N1568       N  0.05159137  0.91825906  0.94997017    -0.44200
C1569       C  0.36368549  0.82970451  0.85397022    -0.00600
C1570       C  0.36047522  0.84423020  0.89099721    -0.12500
C1571       C  0.34281655  0.86042554  0.89173541     0.01600
C1572       C  0.32578656  0.86107486  0.85524141    -0.00700
C1573       C  0.33330180  0.85104727  0.81707066    -0.12400
C1574       C  0.35260302  0.83653972  0.81590589     0.01500
H1575       H  0.37249437  0.84361716  0.91970564     0.14500
H1576       H  0.32561586  0.85611809  0.78740003     0.14500
C1577       C  0.36327724  0.83228108  0.77485917     0.36100
C1578       C  0.34468826  0.87780951  0.92988091     0.36000
N1579       N  0.37204356  0.82919845  0.74188550    -0.44200
N1580       N  0.34661125  0.89181085  0.96055824    -0.44200
C1581       C  0.16968109  0.53081675  0.64826457    -0.00600
C1582       C  0.13836924  0.51094805  0.66847165    -0.12500
C1583       C  0.11831074  0.97702587  0.66149758     0.01600
C1584       C  0.13003360  0.96101713  0.63546875    -0.00700
C1585       C  0.16271645  0.98067778  0.61854541    -0.12400
C1586       C  0.18173694  0.51476590  0.62318068     0.01500
H1587       H  0.12912468  0.52212949  0.68976015     0.14500
H1588       H  0.17363873  0.96912791  0.60112797     0.14500
C1589       C  0.21317933  0.53200305  0.60049243     0.36100
C1590       C  0.08622881  0.96013219  0.68265466     0.36000
N1591       N  0.23825269  0.54489361  0.58188887    -0.44200
N1592       N  0.06047644  0.94751061  0.69962352    -0.44200
C1593       C  0.23371471  0.60790638  0.56442466    -0.00600
C1594       C  0.20591930  0.58599161  0.54065898    -0.12500
C1595       C  0.20687434  0.58892171  0.99664122     0.01600
C1596       C  0.23686768  0.61259237  0.97571235    -0.00700
C1597       C  0.26561646  0.63183360  0.99992495    -0.12400
C1598       C  0.26462600  0.62824174  0.54368890     0.01500
H1599       H  0.18217453  0.56985443  0.55663223     0.14500
H1600       H  0.28870816  0.65013655  0.98433155     0.14500
C1601       C  0.29445607  0.64836101  0.56774509     0.36100
C1602       C  0.17641989  0.56804373  0.97399991     0.36000
N1603       N  0.31831523  0.66423133  0.58724579    -0.44200
N1604       N  0.15177085  0.55114063  0.95643509    -0.44200
C1605       C  0.12960620  0.66715380  0.65640988    -0.00600
C1606       C  0.16435011  0.68562219  0.64813653    -0.12500
C1607       C  0.18386184  0.67157270  0.64979645     0.01600
C1608       C  0.16883365  0.63740861  0.65823186    -0.00700
C1609       C  0.13494151  0.61975331  0.67098050    -0.12400
C1610       C  0.11549997  0.63406023  0.67064288     0.01500
H1611       H  0.17650703  0.71160558  0.63988634     0.14500
H1612       H  0.12328548  0.59481895  0.68301693     0.14500
C1613       C  0.08227366  0.61413259  0.68813082     0.36100
C1614       C  0.21939906  0.69312873  0.64280892     0.36000
N1615       N  0.05590023  0.59736907  0.70286273    -0.44200
N1616       N  0.24785834  0.71051112  0.63744877    -0.44200
O1617       O  0.64812388  0.27108810  0.22529674    -0.85800
O1618       O  0.69819134  0.32649286  0.18235886    -0.82900
C1619       C  0.71793019  0.35643371  0.17185857     0.97600
O1620       O  0.71998218  0.37916059  0.19459212    -0.82900
O1621       O  0.66097332  0.37686845  0.18713027    -0.85500
C1622       C  0.62959575  0.36263920  0.18538552     1.02200
O1623       O  0.61061115  0.33918116  0.21048257    -0.78300
O1624       O  0.61268723  0.28260468  0.20095415    -0.78500
C1625       C  0.62499386  0.26474364  0.20067190     1.02100
O1626       O  0.67330362  0.30046787  0.30254068    -0.85800
O1627       O  0.72937043  0.35139937  0.26066024    -0.82900
C1628       C  0.73448763  0.37285548  0.28734871     0.97700
O1629       O  0.71612655  0.38473002  0.28706801    -0.82900
O1630       O  0.65948589  0.38709133  0.27488350    -0.85500
C1631       C  0.63632513  0.36989466  0.30122960     1.02100
O1632       O  0.62053650  0.33867022  0.30035206    -0.78300
O1633       O  0.61957624  0.28003691  0.29335334    -0.78500
C1634       C  0.64315841  0.28084829  0.31357639     1.02100
Cr1635     Cr  0.68539220  0.31419417  0.24270477     1.93700
Cr1636     Cr  0.68728925  0.37848454  0.23658130     1.93200
Cr1637     Cr  0.61940890  0.31192267  0.25070112     1.39100
O1638       O  0.66366518  0.33501968  0.24350041    -1.23600
C1639       C  0.68754736  0.11932238  0.15608353     0.86000
C1640       C  0.70700835  0.12809667  0.11407358    -0.54200
C1641       C  0.72603666  0.11459921  0.10871738     0.08900
C1642       C  0.72459004  0.09376155  0.14711256     0.19900
C1643       C  0.66800490  0.08128701  0.15675993    -0.54900
C1644       C  0.68690152  0.06742863  0.15235740     0.09000
C1645       C  0.71381028  0.12949446  0.19009611    -0.54500
C1646       C  0.73371892  0.11682056  0.18547478     0.09600
H1647       H  0.70275281  0.14059847  0.08839001     0.14100
H1648       H  0.74130447  0.08423943  0.14402306    -0.00100
H1649       H  0.64118114  0.06609086  0.15617221     0.14400
H1650       H  0.71716507  0.14658873  0.21494157     0.14200
C1651       C  0.88103399  0.30993625  0.35625685     0.86000
C1652       C  0.87338385  0.29011930  0.39766746    -0.54200
C1653       C  0.88869811  0.27274423  0.40180110     0.08900
C1654       C  0.91061600  0.27630659  0.36280699     0.19900
C1655       C  0.91918445  0.33126968  0.35359166    -0.54900
C1656       C  0.93492555  0.31414193  0.35679390     0.09000
C1657       C  0.87106306  0.28331886  0.32270619    -0.54500
C1658       C  0.88648671  0.26574748  0.32523559     0.09600
H1659       H  0.85707213  0.28982659  0.42231140     0.14100
H1660       H  0.92302805  0.26216172  0.36589641    -0.00100
H1661       H  0.93270759  0.35794969  0.35009815     0.14400
H1662       H  0.85132384  0.27704109  0.30047425     0.14200
C1663       C  0.70600924  0.13527500  0.37931625     0.86000
C1664       C  0.73804829  0.15166274  0.35332661    -0.54200
C1665       C  0.75678124  0.13819893  0.35812210     0.08900
C1666       C  0.74175141  0.10881311  0.39015131     0.19900
C1667       C  0.68781816  0.09805796  0.36767187    -0.54900
C1668       C  0.70633038  0.08372978  0.37380683     0.09000
C1669       C  0.71642212  0.13570366  0.42500537    -0.54500
C1670       C  0.73491559  0.12192744  0.43141511     0.09600
H1671       H  0.74410093  0.17099524  0.33008157     0.14100
H1672       H  0.75825562  0.09913209  0.39408848    -0.00100
H1673       H  0.66193671  0.08358055  0.35851200     0.14400
H1674       H  0.70725929  0.14367258  0.45107114     0.14200
C1675       C  0.63594400  0.43723079  0.36714519     0.86000
C1676       C  0.64580790  0.42188355  0.33226722    -0.54200
C1677       C  0.62855794  0.38802814  0.33278319     0.08900
C1678       C  0.60216698  0.37224655  0.36882603     0.19900
C1679       C  0.59801182  0.42094333  0.36297071    -0.54900
C1680       C  0.58013401  0.38711088  0.36372309     0.09000
C1681       C  0.63889673  0.42177834  0.40846388    -0.54500
C1682       C  0.62173451  0.38804359  0.40985626     0.09600
H1683       H  0.66531699  0.43693743  0.30917328     0.14100
H1684       H  0.58813024  0.34490343  0.36897392    -0.00100
H1685       H  0.58609087  0.43501336  0.36065087     0.14400
H1686       H  0.65040589  0.43592549  0.43667287     0.14200
C1687       C  0.61362754  0.42333332  0.12822464     0.86000
C1688       C  0.61966995  0.41296395  0.08502110    -0.54200
C1689       C  0.60773458  0.38010520  0.08130375     0.08900
C1690       C  0.58956163  0.35970125  0.12198739     0.19900
C1691       C  0.57546283  0.40136001  0.13320454    -0.54900
C1692       C  0.56224738  0.36789370  0.13126237     0.09000
C1693       C  0.62764015  0.40993849  0.16010291    -0.54500
C1694       C  0.61572938  0.37718161  0.15721991     0.09600
H1695       H  0.63159652  0.43009812  0.05859030     0.14100
H1696       H  0.58060984  0.33318322  0.11981290    -0.00100
H1697       H  0.55950701  0.41120653  0.13387409     0.14400
H1698       H  0.64630553  0.42557400  0.18305908     0.14200
C1699       C  0.86402862  0.29426549  0.12136125     0.86000
C1700       C  0.84974817  0.26484149  0.15265247    -0.54200
C1701       C  0.86419754  0.24667646  0.14990409     0.08900
C1702       C  0.89151923  0.25899012  0.11502922     0.19900
C1703       C  0.90187104  0.31376569  0.12850944    -0.54900
C1704       C  0.91663500  0.29560978  0.12631319     0.09000
C1705       C  0.85950283  0.27809936  0.07845934    -0.54500
C1706       C  0.87390314  0.25996441  0.07415489     0.09600
H1707       H  0.83021924  0.25841211  0.17583691     0.14100
H1708       H  0.90261632  0.24362186  0.11243035    -0.00100
H1709       H  0.91570649  0.34013037  0.13395986     0.14400
H1710       H  0.84704922  0.28204252  0.05253373     0.14200
C1711       C  0.79399271  0.36684262  0.11728686     0.86000
C1712       C  0.78603160  0.37146283  0.07175747    -0.54200
C1713       C  0.76936284  0.38752414  0.06845910     0.08900
C1714       C  0.76169235  0.39744975  0.11161390     0.19900
C1715       C  0.81247519  0.40189489  0.13583505    -0.54900
C1716       C  0.79637800  0.41872568  0.13194406     0.09000
C1717       C  0.75942578  0.34842192  0.13847960    -0.54500
C1718       C  0.74324405  0.36489032  0.13813993     0.09600
H1719       H  0.79320697  0.36320759  0.04401570     0.14100
H1720       H  0.74752140  0.40970598  0.10790739    -0.00100
H1721       H  0.83731682  0.41300409  0.14867057     0.14400
H1722       H  0.74866473  0.32468387  0.15424920     0.14200
C1723       C  0.63658855  0.20756114  0.37162564     0.86000
C1724       C  0.64032142  0.22215128  0.41562575    -0.54200
C1725       C  0.62557490  0.23979249  0.42124002     0.08900
C1726       C  0.60831694  0.24186738  0.38066815     0.19900
C1727       C  0.59846207  0.18764745  0.36590514    -0.54900
C1728       C  0.58324042  0.20539657  0.36938256     0.09000
C1729       C  0.65014451  0.23688976  0.34128376    -0.54500
C1730       C  0.63553114  0.25482467  0.34534308     0.09600
H1731       H  0.65038614  0.21559924  0.44201148     0.14100
H1732       H  0.59774253  0.25758304  0.38378002    -0.00100
H1733       H  0.58412839  0.16110214  0.36291900     0.14400
H1734       H  0.66889758  0.24217495  0.31711870     0.14200
C1735       C  0.88216217  0.07517174  0.36473423     0.86000
C1736       C  0.86937497  0.08999634  0.33354917    -0.54200
C1737       C  0.88450015  0.12328965  0.33513968     0.08900
C1738       C  0.91263974  0.13959743  0.36845835     0.19900
C1739       C  0.92012019  0.09352686  0.35706948    -0.54900
C1740       C  0.93674424  0.12738234  0.35824596     0.09000
C1741       C  0.87974524  0.08786403  0.40804379    -0.54500
C1742       C  0.89528125  0.12133623  0.41048287     0.09600
H1743       H  0.84900376  0.07493589  0.31223087     0.14100
H1744       H  0.92464576  0.16676233  0.37005389    -0.00100
H1745       H  0.93280155  0.08027171  0.35712273     0.14400
H1746       H  0.86921709  0.07195943  0.43583655     0.14200
C1747       C  0.80449948  0.37725266  0.35458279     0.86000
C1748       C  0.77922952  0.36686063  0.31873365    -0.54200
C1749       C  0.76191010  0.38258303  0.31802900     0.08900
C1750       C  0.77176572  0.40773175  0.35389052     0.19900
C1751       C  0.82668693  0.41489483  0.35043183    -0.54900
C1752       C  0.80994494  0.43106294  0.34934874     0.09000
C1753       C  0.78262757  0.37095859  0.39414162    -0.54500
C1754       C  0.76676859  0.38803645  0.39501650     0.09600
H1755       H  0.77369047  0.34697670  0.29757467     0.14100
H1756       H  0.75742677  0.42006129  0.35357569    -0.00100
H1757       H  0.85367889  0.42761655  0.35056477     0.14400
H1758       H  0.78229285  0.35695767  0.42147224     0.14200
C1759       C  0.86591993  0.06468001  0.13437503     0.86000
C1760       C  0.86714799  0.07692375  0.08914513    -0.54200
C1761       C  0.88262442  0.11036590  0.08480211     0.08900
C1762       C  0.89525059  0.12912824  0.12686580     0.19900
C1763       C  0.90249852  0.08444143  0.14884378    -0.54900
C1764       C  0.91790220  0.11807047  0.14445516     0.09000
C1765       C  0.84990411  0.07968851  0.16111619    -0.54500
C1766       C  0.86562713  0.11340992  0.15835557     0.09600
H1767       H  0.85859177  0.06057369  0.06213990     0.14100
H1768       H  0.90741331  0.15628071  0.12344436    -0.00100
H1769       H  0.91530360  0.07289276  0.16092368     0.14400
H1770       H  0.83073100  0.06560938  0.18481615     0.14200
C1771       C  0.60986263  0.18471420  0.15158572     0.86000
C1772       C  0.62413116  0.21447760  0.18071654    -0.54200
C1773       C  0.61306015  0.23537166  0.17376669     0.08900
C1774       C  0.58817561  0.22455098  0.13739428     0.19900
C1775       C  0.57170386  0.16842872  0.15738573    -0.54900
C1776       C  0.56033523  0.18922264  0.15029631     0.09000
C1777       C  0.61675156  0.19927285  0.10673305    -0.54500
C1778       C  0.60554620  0.21972885  0.09888674     0.09600
H1779       H  0.64162845  0.21837552  0.20544649     0.14100
H1780       H  0.57987612  0.24198219  0.13170293    -0.00100
H1781       H  0.55428755  0.14310338  0.16568856     0.14400
H1782       H  0.62846721  0.19272495  0.08224821     0.14200
O1783       O  0.82634381  0.20195923  0.19420482    -0.85800
O1784       O  0.77036302  0.15172320  0.23747312    -0.82900
C1785       C  0.76339405  0.12858239  0.21267753     0.97600
O1786       O  0.78169600  0.11670606  0.21181915    -0.82900
O1787       O  0.83826612  0.11472595  0.21994136    -0.85500
C1788       C  0.85979549  0.13175692  0.19178399     1.02200
O1789       O  0.87667039  0.16299886  0.19347178    -0.78300
O1790       O  0.88003503  0.22220945  0.20278323    -0.78500
C1791       C  0.85642400  0.22122249  0.18256635     1.02100
O1792       O  0.85319886  0.23151640  0.27107626    -0.85800
O1793       O  0.80242606  0.17629402  0.31482318    -0.82900
C1794       C  0.78265955  0.14637501  0.32564991     0.97700
O1795       O  0.78069896  0.12331257  0.30380620    -0.82900
O1796       O  0.83965337  0.12567863  0.30843645    -0.85500
C1797       C  0.87093939  0.13897459  0.30849556     1.02100
O1798       O  0.88954296  0.16206366  0.28279175    -0.78300
O1799       O  0.88823265  0.21939084  0.29504406    -0.78500
C1800       C  0.87596645  0.23737188  0.29617031     1.02100
Cr1801     Cr  0.81489370  0.18855239  0.25435527     1.93700
Cr1802     Cr  0.81213574  0.12370419  0.26038703     1.93200
Cr1803     Cr  0.88012275  0.18987983  0.24435415     1.39100
O1804       O  0.83596196  0.16717492  0.25291480    -1.23600
C1805       C  0.52419276  0.17747788  0.15428370    -0.00600
C1806       C  0.50506063  0.15520989  0.18737211    -0.12500
C1807       C  0.96998678  0.13686595  0.18657160     0.01600
C1808       C  0.95381888  0.14142438  0.15264308    -0.00700
C1809       C  0.97264769  0.16727581  0.12383993    -0.12400
C1810       C  0.50759361  0.18547019  0.12400284     0.01500
H1811       H  0.51729991  0.15054782  0.21282837     0.14500
H1812       H  0.96034560  0.17224056  0.09879994     0.14500
C1813       C  0.52464733  0.20993763  0.09109666     0.36100
C1814       C  0.95059958  0.11551743  0.22153090     0.36000
N1815       N  0.53737255  0.22942505  0.06424749    -0.44200
N1816       N  0.93296851  0.09818817  0.24818498    -0.44200
C1817       C  0.90081817  0.13578935  0.45327630    -0.00600
C1818       C  0.92502436  0.13473771  0.47716916    -0.12500
C1819       C  0.92080876  0.12888927  0.02076537     0.01600
C1820       C  0.89293947  0.12606559  0.04202352    -0.00700
C1821       C  0.87113526  0.13175249  0.01908458    -0.12400
C1822       C  0.87481515  0.13637273  0.47467484     0.01500
H1823       H  0.94462464  0.13350640  0.46082792     0.14500
H1824       H  0.84956747  0.12944558  0.03498627     0.14500
C1825       C  0.84989453  0.13830465  0.45115261     0.36100
C1826       C  0.94225102  0.12013888  0.04118220     0.36000
N1827       N  0.83014699  0.13996917  0.43189052    -0.44200
N1828       N  0.95928806  0.11257822  0.05677803    -0.44200
C1829       C  0.86286395  0.03752679  0.36078050    -0.00600
C1830       C  0.87521931  0.02292943  0.33375559    -0.12500
C1831       C  0.85756138  0.48848062  0.32699835     0.01600
C1832       C  0.82739849  0.46779462  0.34953639    -0.00700
C1833       C  0.81390117  0.48250707  0.37388967    -0.12400
C1834       C  0.83024787  0.01685279  0.37811810     0.01500
H1835       H  0.89803702  0.03817922  0.31570829     0.14500
H1836       H  0.79022142  0.46729442  0.39027660     0.14500
C1837       C  0.81236902  0.02980332  0.39912192     0.36100
C1838       C  0.87016005  0.47571348  0.29568731     0.36000
N1839       N  0.79795666  0.04011496  0.41585589    -0.44200
N1840       N  0.88027667  0.46561395  0.27045035    -0.44200
C1841       C  0.60611611  0.23070760  0.05474365    -0.00600
C1842       C  0.63550259  0.25849987  0.03909576    -0.12500
C1843       C  0.64171854  0.26356585  0.49447846     0.01600
C1844       C  0.61679049  0.24263580  0.46561449    -0.00700
C1845       C  0.58670783  0.21597814  0.48178882    -0.12400
C1846       C  0.58222683  0.20873940  0.02569629     0.01500
H1847       H  0.65522879  0.27376119  0.06097393     0.14500
H1848       H  0.56882194  0.19780493  0.46016921     0.14500
C1849       C  0.55527724  0.17637430  0.03897212     0.36100
C1850       C  0.67582874  0.28517352  0.48050304     0.36000
N1851       N  0.53416485  0.15024425  0.04965285    -0.44200
N1852       N  0.70346137  0.30108967  0.46971324    -0.44200
C1853       C  0.97455659  0.14921134  0.35746473    -0.00600
C1854       C  0.99026803  0.17844513  0.38128718    -0.12500
C1855       C  0.52531397  0.19770674  0.38511119     0.01600
C1856       C  0.54605600  0.18917142  0.36332430    -0.00700
C1857       C  0.53045927  0.16193536  0.33636311    -0.12400
C1858       C  0.99569654  0.14107934  0.33558664     0.01500
H1859       H  0.97518665  0.18526407  0.39908188     0.14500
H1860       H  0.54554142  0.15559493  0.31759106     0.14500
C1861       C  0.98399622  0.11075537  0.31312069     0.36100
C1862       C  0.53832968  0.22515101  0.41363496     0.36000
N1863       N  0.97619196  0.08625115  0.29634532    -0.44200
N1864       N  0.54813116  0.24702992  0.43670459    -0.44200
C1865       C  0.84864253  0.02654925  0.13697091    -0.00600
C1866       C  0.81472275  0.00660298  0.14922395    -0.12500
C1867       C  0.79779681  0.47218765  0.14977150     0.01600
C1868       C  0.81410720  0.45571163  0.13759039    -0.00700
C1869       C  0.84814203  0.47546719  0.12636541    -0.12400
C1870       C  0.86461579  0.00988070  0.12357323     0.01500
H1871       H  0.80054533  0.01775091  0.15691464     0.14500
H1872       H  0.86142119  0.46381751  0.11619558     0.14500
C1873       C  0.89783522  0.02710260  0.10539217     0.36100
C1874       C  0.76332989  0.45487455  0.16322388     0.36000
N1875       N  0.92447637  0.04050606  0.09088147    -0.44200
N1876       N  0.73572909  0.44242234  0.17388977    -0.44200
C1877       C  0.76187205  0.39845161  0.43716956    -0.00600
C1878       C  0.79087311  0.42138936  0.45815251    -0.12500
C1879       C  0.79214401  0.42128571  0.00198099     0.01600
C1880       C  0.76420950  0.39751362  0.02599051    -0.00700
C1881       C  0.73365085  0.37777418  0.00532344    -0.12400
C1882       C  0.73219668  0.37925030  0.46081596     0.01500
H1883       H  0.81373990  0.43667566  0.44005359     0.14500
H1884       H  0.71174474  0.35992933  0.02344193     0.14500
C1885       C  0.70090433  0.35923819  0.43954395     0.36100
C1886       C  0.82420245  0.44269645  0.02070695     0.36000
N1887       N  0.67590087  0.34349184  0.42217170    -0.44200
N1888       N  0.85056988  0.46014108  0.03389761    -0.44200
C1889       C  0.84895009  0.31604304  0.12302028    -0.00600
C1890       C  0.82810440  0.31341161  0.15686366    -0.12500
C1891       C  0.81205255  0.33096657  0.15715599     0.01600
C1892       C  0.81418834  0.35011056  0.12136985    -0.00700
C1893       C  0.83832217  0.35611828  0.09017919    -0.12400
C1894       C  0.85591597  0.33995800  0.09107011     0.01500
H1895       H  0.82482140  0.29863421  0.18444305     0.14500
H1896       H  0.84385700  0.37379594  0.06494840     0.14500
C1897       C  0.88106179  0.34863386  0.05863466     0.36100
C1898       C  0.79492610  0.32953621  0.19580756     0.36000
N1899       N  0.90122671  0.35564507  0.03266211    -0.44200
N1900       N  0.78065794  0.32765065  0.22664043    -0.44200
C1901       C  0.52482173  0.34413881  0.13585538    -0.00600
C1902       C  0.50698896  0.35324043  0.16247883    -0.12500
C1903       C  0.97201781  0.33645592  0.16217774     0.01600
C1904       C  0.95345224  0.31037337  0.13356120    -0.00700
C1905       C  0.97080473  0.29857958  0.11108555    -0.12400
C1906       C  0.50585017  0.31457121  0.11284962     0.01500
H1907       H  0.52049968  0.37387700  0.18365736     0.14500
H1908       H  0.95723467  0.27701312  0.09160284     0.14500
C1909       C  0.52077048  0.29929803  0.09073516     0.36100
C1910       C  0.95624758  0.34616675  0.19307060     0.36000
N1911       N  0.53177998  0.28588425  0.07334129    -0.44200
N1912       N  0.94411024  0.35423661  0.21820569    -0.44200
C1913       C  0.61837317  0.37109513  0.45137967    -0.00600
C1914       C  0.64646969  0.38469579  0.47746764    -0.12500
C1915       C  0.64367749  0.38262500  0.02065994     0.01600
C1916       C  0.61170216  0.36781597  0.03980214    -0.00700
C1917       C  0.58371951  0.34964167  0.01421653    -0.12400
C1918       C  0.58689214  0.34976925  0.47035697     0.01500
H1919       H  0.67114883  0.40000648  0.46342189     0.14500
H1920       H  0.55901781  0.33839334  0.02783072     0.14500
C1921       C  0.55841573  0.32827001  0.44523889     0.36100
C1922       C  0.67352271  0.40015514  0.04551078     0.36000
N1923       N  0.53639656  0.31000083  0.42442339    -0.44200
N1924       N  0.69742153  0.41439072  0.06539312    -0.44200
C1925       C  0.68834494  0.15420987  0.37370470    -0.00600
C1926       C  0.65876473  0.14126667  0.35056528    -0.12500
C1927       C  0.64287184  0.15896024  0.34571615     0.01600
C1928       C  0.65498429  0.18914682  0.36728782    -0.00700
C1929       C  0.68673525  0.20383570  0.38523581    -0.12400
C1930       C  0.70344375  0.18712976  0.38831576     0.01500
H1931       H  0.64873560  0.11816395  0.33416448     0.14500
H1932       H  0.69847303  0.22858120  0.39781483     0.14500
C1933       C  0.73636770  0.20485100  0.40643900     0.36100
C1934       C  0.61732564  0.14757443  0.31415228     0.36000
N1935       N  0.76275787  0.21911187  0.42075064    -0.44200
N1936       N  0.59730156  0.13857882  0.28823586    -0.44200
C1937       C  0.69175620  0.04691326  0.36943425    -0.00600
C1938       C  0.66786853  0.02923942  0.33807308    -0.12500
C1939       C  0.65052054  0.49418382  0.33574470     0.01600
C1940       C  0.65642823  0.47560246  0.36552669     0.00900
C1941       C  0.68305875  0.49365311  0.39337413    -0.12400
C1942       C  0.70007527  0.02851000  0.39641690     0.01500
H1943       H  0.66218881  0.04257509  0.31533472     0.14500
H1944       H  0.69152946  0.48113546  0.41324046     0.14500
C1945       C  0.72454335  0.04304172  0.42925330     0.36100
C1946       C  0.62793100  0.47838131  0.30131233     0.36000
N1947       N  0.74398549  0.05330627  0.45594961    -0.44200
N1948       N  0.60975097  0.46529880  0.27383007    -0.44200
C1949       C  0.88467769  0.25472876  0.44244358    -0.00600
C1950       C  0.85246123  0.23586443  0.46027015    -0.12500
C1951       C  0.84750380  0.23333003  0.00457949     0.01600
C1952       C  0.87564071  0.24795881  0.03121101    -0.00700
C1953       C  0.90714191  0.26022212  0.01259272    -0.12400
C1954       C  0.91200794  0.26419923  0.46897224     0.01500
H1955       H  0.83106103  0.22753289  0.44013208     0.14500
H1956       H  0.92892265  0.27120156  0.03224866     0.14500
C1957       C  0.94548821  0.28172617  0.45259970     0.36100
C1958       C  0.81412311  0.21963478  0.02131428     0.36000
N1959       N  0.97260499  0.29571700  0.44000867    -0.44200
N1960       N  0.78737647  0.20920799  0.03438978    -0.44200
C1961       C  0.97213927  0.33163959  0.35829650    -0.00600
C1962       C  0.98909479  0.35745932  0.38715294    -0.12500
C1963       C  0.52378464  0.37469608  0.39050007     0.01600
C1964       C  0.54281338  0.36732535  0.36321788    -0.00700
C1965       C  0.52594160  0.34129085  0.33457931    -0.12400
C1966       C  0.99098010  0.32346145  0.33194765     0.01500
H1967       H  0.97491752  0.36348636  0.40830009     0.14500
H1968       H  0.54023009  0.33536883  0.31350868     0.14500
C1969       C  0.97511514  0.29802373  0.30062549     0.36100
C1970       C  0.53920003  0.39880488  0.42355747     0.36000
N1971       N  0.96257931  0.27776518  0.27528184    -0.44200
N1972       N  0.55168109  0.41803248  0.45010760    -0.44200
C1973       C  0.86383531  0.33005607  0.35386983    -0.00600
C1974       C  0.86049827  0.34444873  0.39094391    -0.12500
C1975       C  0.84266491  0.36045803  0.39175887     0.01600
C1976       C  0.82566026  0.36112573  0.35524748    -0.00700
C1977       C  0.83333293  0.35127916  0.31702617    -0.12400
C1978       C  0.85276000  0.33690459  0.31582225     0.01500
H1979       H  0.87254337  0.34387507  0.41964757     0.14500
H1980       H  0.82564724  0.35636644  0.28736613     0.14500
C1981       C  0.86355579  0.33275460  0.27479255     0.36100
C1982       C  0.84427944  0.37756946  0.43006219     0.36000
N1983       N  0.87247680  0.32976902  0.24187236    -0.44200
N1984       N  0.84598440  0.39130550  0.46090932    -0.44200
C1985       C  0.67032968  0.03058994  0.14800606    -0.00600
C1986       C  0.63943002  0.01009941  0.16883663    -0.12500
C1987       C  0.61952986  0.47632224  0.16111809     0.01600
C1988       C  0.63093014  0.46099800  0.13330211    -0.00700
C1989       C  0.66331566  0.48114183  0.11568564    -0.12400
C1990       C  0.68240224  0.01526165  0.12152781     0.01500
H1991       H  0.63023999  0.02071467  0.19115569     0.14500
H1992       H  0.67422406  0.47010750  0.09714555     0.14500
C1993       C  0.71365606  0.03320848  0.09850235     0.36100
C1994       C  0.58766816  0.45877932  0.18280151     0.36000
N1995       N  0.73860432  0.04667913  0.07962511    -0.44200
N1996       N  0.56201554  0.44550450  0.20007222    -0.44200
C1997       C  0.73285794  0.10899534  0.06478028    -0.00600
C1998       C  0.70525680  0.08703414  0.04076694    -0.12500
C1999       C  0.70655986  0.08795417  0.49649428     0.01600
C2000       C  0.73646396  0.11165720  0.47543955    -0.00700
C2001       C  0.76529550  0.13083460  0.49953313    -0.12400
C2002       C  0.76380903  0.12970538  0.04434719     0.01500
H2003       H  0.68145826  0.07073799  0.05653951     0.14500
H2004       H  0.78838114  0.14905134  0.48383904     0.14500
C2005       C  0.79328061  0.15042798  0.06873588     0.36100
C2006       C  0.67616041  0.06681999  0.47388855     0.36000
N2007       N  0.81677728  0.16684240  0.08861160    -0.44200
N2008       N  0.65158699  0.04970389  0.45629176    -0.44200
C2009       C  0.62772750  0.16563566  0.15801539    -0.00600
C2010       C  0.66278704  0.18442581  0.15246796    -0.12500
C2011       C  0.68227708  0.17037005  0.15418646     0.01600
C2012       C  0.66709642  0.13593366  0.16035036    -0.00700
C2013       C  0.63253030  0.11753220  0.16943518    -0.12400
C2014       C  0.61286645  0.13156565  0.16796820     0.01500
H2015       H  0.67525020  0.21070625  0.14594947     0.14500
H2016       H  0.62005639  0.09185496  0.17830729     0.14500
C2017       C  0.57786215  0.10923330  0.17674797     0.36100
C2018       C  0.71796463  0.19218532  0.14897220     0.36000
N2019       N  0.55001089  0.09007475  0.18405915    -0.44200
N2020       N  0.74652462  0.20977165  0.14494050    -0.44200
O2021       O  0.64737891  0.27086343  0.72544079    -0.85800
O2022       O  0.69753264  0.32612783  0.68244337    -0.82900
C2023       C  0.71732420  0.35602578  0.67184365     0.97600
O2024       O  0.71951709  0.37883227  0.69452689    -0.82900
O2025       O  0.66054544  0.37665089  0.68702856    -0.85500
C2026       C  0.62917109  0.36256487  0.68553503     1.02200
O2027       O  0.61022516  0.33920889  0.71078457    -0.78300
O2028       O  0.61195467  0.28242239  0.70121594    -0.78500
C2029       C  0.62424138  0.26454196  0.70079295     1.02100
O2030       O  0.67286650  0.30035391  0.80269835    -0.85800
O2031       O  0.72890735  0.35117836  0.76077998    -0.82900
C2032       C  0.73423046  0.37287005  0.78724498     0.97700
O2033       O  0.71589663  0.38478133  0.78691455    -0.82900
O2034       O  0.65924942  0.38723855  0.77468241    -0.85500
C2035       C  0.63616088  0.37013350  0.80114982     1.02100
O2036       O  0.62041781  0.33889359  0.80052474    -0.78300
O2037       O  0.61914281  0.27999994  0.79374059    -0.78500
C2038       C  0.64275791  0.28078566  0.81388483     1.02100
Cr2039     Cr  0.68483073  0.31397106  0.74282469     1.93700
Cr2040     Cr  0.68693334  0.37837771  0.73647323     1.93200
Cr2041     Cr  0.61898606  0.31191081  0.75098166     1.39100
O2042       O  0.66322632  0.33491093  0.74361747    -1.23600
C2043       C  0.68766212  0.11979273  0.65565007     0.86000
C2044       C  0.70705208  0.12810742  0.61359297    -0.54200
C2045       C  0.72579354  0.11426965  0.60849628     0.08900
C2046       C  0.72399245  0.09344661  0.64713113     0.19900
C2047       C  0.66763575  0.08176535  0.65655443    -0.54900
C2048       C  0.68616823  0.06747251  0.65233225     0.09000
C2049       C  0.71387441  0.12982864  0.68965411    -0.54500
C2050       C  0.73337065  0.11667828  0.68535400     0.09600
H2051       H  0.70294390  0.14055970  0.58770594     0.14100
H2052       H  0.74046723  0.08363823  0.64433326    -0.00100
H2053       H  0.64073920  0.06704067  0.65594650     0.14400
H2054       H  0.71745383  0.14713136  0.71431566     0.14200
C2055       C  0.88064457  0.30968641  0.85575334     0.86000
C2056       C  0.87277445  0.28977931  0.89712298    -0.54200
C2057       C  0.88807370  0.27238860  0.90145827     0.08900
C2058       C  0.91018259  0.27603362  0.86261344     0.19900
C2059       C  0.91880591  0.33102552  0.85345887    -0.54900
C2060       C  0.93453095  0.31390193  0.85683107     0.09000
C2061       C  0.87084401  0.28313517  0.82215147    -0.54500
C2062       C  0.88621173  0.26552482  0.82484695     0.09600
H2063       H  0.85642309  0.28956790  0.92164542     0.14100
H2064       H  0.92258146  0.26188162  0.86575210    -0.00100
H2065       H  0.93235175  0.35771582  0.85010251     0.14400
H2066       H  0.85110929  0.27678044  0.79989543     0.14200
C2067       C  0.70591854  0.13530450  0.87982670     0.86000
C2068       C  0.73767043  0.15122887  0.85328910    -0.54200
C2069       C  0.75628283  0.13762440  0.85810290     0.08900
C2070       C  0.74138985  0.10852119  0.89052557     0.19900
C2071       C  0.68737946  0.09794235  0.86882911    -0.54900
C2072       C  0.70575749  0.08346430  0.87479758     0.09000
C2073       C  0.71682955  0.13617583  0.92534842    -0.54500
C2074       C  0.73514740  0.12219466  0.93167579     0.09600
H2075       H  0.74369946  0.17045387  0.82988717     0.14100
H2076       H  0.75776823  0.09868601  0.89440289    -0.00100
H2077       H  0.66139338  0.08348547  0.86015693     0.14400
H2078       H  0.70804897  0.14451436  0.95142564     0.14200
C2079       C  0.63584847  0.43748196  0.86732215     0.86000
C2080       C  0.64569630  0.42220892  0.83224954    -0.54200
C2081       C  0.62840523  0.38833406  0.83260649     0.08900
C2082       C  0.60200848  0.37247576  0.86858100     0.19900
C2083       C  0.59790764  0.42122588  0.86312831    -0.54900
C2084       C  0.57999304  0.38737913  0.86367523     0.09000
C2085       C  0.63876048  0.42183127  0.90848462    -0.54500
C2086       C  0.62162715  0.38810194  0.90958690     0.09600
H2087       H  0.66524907  0.43730009  0.80922474     0.14100
H2088       H  0.58794472  0.34513186  0.86859439    -0.00100
H2089       H  0.58602724  0.43533733  0.86085994     0.14400
H2090       H  0.65029418  0.43579094  0.93679624     0.14200
C2091       C  0.61278794  0.42327822  0.62915155     0.86000
C2092       C  0.61840083  0.41292357  0.58568766    -0.54200
C2093       C  0.60658026  0.38010390  0.58185839     0.08900
C2094       C  0.58881482  0.35967583  0.62265939     0.19900
C2095       C  0.57465806  0.40121349  0.63479770    -0.54900
C2096       C  0.56149290  0.36774955  0.63255896     0.09000
C2097       C  0.62716804  0.40991855  0.66054491    -0.54500
C2098       C  0.61526672  0.37717368  0.65755420     0.09600
H2099       H  0.63024654  0.43012499  0.55929626     0.14100
H2100       H  0.57996976  0.33319453  0.62039603    -0.00100
H2101       H  0.55862239  0.41094581  0.63584576     0.14400
H2102       H  0.64599973  0.42555366  0.68333379     0.14200
C2103       C  0.86286224  0.29316098  0.62117007     0.86000
C2104       C  0.84841172  0.26360358  0.65226924    -0.54200
C2105       C  0.86304940  0.24559762  0.64975041     0.08900
C2106       C  0.89063217  0.25812187  0.61524054     0.19900
C2107       C  0.90064921  0.31274105  0.62888947    -0.54900
C2108       C  0.91551846  0.29468323  0.62687443     0.09000
C2109       C  0.85873338  0.27716348  0.57821637    -0.54500
C2110       C  0.87329905  0.25916610  0.57415030     0.09600
H2111       H  0.82869685  0.25702658  0.67522612     0.14100
H2112       H  0.90186818  0.24286738  0.61279967    -0.00100
H2113       H  0.91438034  0.33905618  0.63473203     0.14400
H2114       H  0.84640014  0.28107720  0.55211197     0.14200
C2115       C  0.79326715  0.36623296  0.61736126     0.86000
C2116       C  0.78544269  0.37097829  0.57182284    -0.54200
C2117       C  0.76889333  0.38715038  0.56849711     0.08900
C2118       C  0.76106589  0.39694136  0.61162546     0.19900
C2119       C  0.81174915  0.40127113  0.63602747    -0.54900
C2120       C  0.79566460  0.41812827  0.63210590     0.09000
C2121       C  0.75864703  0.34781773  0.63840568    -0.54500
C2122       C  0.74252062  0.36434013  0.63803501     0.09600
H2123       H  0.79267895  0.36278696  0.54407473     0.14100
H2124       H  0.74693462  0.40924116  0.60789258    -0.00100
H2125       H  0.83660110  0.41238798  0.64883292     0.14400
H2126       H  0.74782639  0.32406919  0.65416101     0.14200
C2127       C  0.63653105  0.20767150  0.87218067     0.86000
C2128       C  0.64061742  0.22248663  0.91606486    -0.54200
C2129       C  0.62585375  0.24009798  0.92185134     0.08900
C2130       C  0.60831650  0.24203090  0.88143953     0.19900
C2131       C  0.59834401  0.18774864  0.86693668    -0.54900
C2132       C  0.58318271  0.20554095  0.87043681     0.09000
C2133       C  0.64985990  0.23686733  0.84162304    -0.54500
C2134       C  0.63526118  0.25482490  0.84576511     0.09600
H2135       H  0.65083904  0.21599506  0.94233305     0.14100
H2136       H  0.59771153  0.25772041  0.88467547    -0.00100
H2137       H  0.58388826  0.16118980  0.86424284     0.14400
H2138       H  0.66845810  0.24205049  0.81727581     0.14200
C2139       C  0.88235253  0.07524642  0.86518620     0.86000
C2140       C  0.86944199  0.08986307  0.83387375    -0.54200
C2141       C  0.88440267  0.12313885  0.83528932     0.08900
C2142       C  0.91257047  0.13967120  0.86858406     0.19900
C2143       C  0.92032183  0.09374192  0.85753261    -0.54900
C2144       C  0.93683044  0.12760470  0.85858085     0.09000
C2145       C  0.87986535  0.08801537  0.90839891    -0.54500
C2146       C  0.89527353  0.12148717  0.91066489     0.09600
H2147       H  0.84908583  0.07466229  0.81260252     0.14100
H2148       H  0.92447589  0.16683049  0.87005808    -0.00100
H2149       H  0.93308339  0.08057092  0.85785724     0.14400
H2150       H  0.86942334  0.07218273  0.93626522     0.14200
C2151       C  0.80451956  0.37743968  0.85412822     0.86000
C2152       C  0.77922607  0.36713314  0.81831242    -0.54200
C2153       C  0.76187945  0.38282124  0.81774145     0.08900
C2154       C  0.77182936  0.40796180  0.85370250     0.19900
C2155       C  0.82673355  0.41508031  0.85013502    -0.54900
C2156       C  0.81005601  0.43132468  0.84918743     0.09000
C2157       C  0.78272067  0.37110830  0.89375646    -0.54500
C2158       C  0.76685956  0.38817547  0.89477363     0.09600
H2159       H  0.77361903  0.34725192  0.79711714     0.14100
H2160       H  0.75747497  0.42027222  0.85350973    -0.00100
H2161       H  0.85370970  0.42771690  0.85047086     0.14400
H2162       H  0.78247751  0.35710391  0.92103444     0.14200
C2163       C  0.86534062  0.06404004  0.63397124     0.86000
C2164       C  0.86655116  0.07645404  0.58884687    -0.54200
C2165       C  0.88216189  0.10992959  0.58467961     0.08900
C2166       C  0.89493066  0.12853897  0.62686242     0.19900
C2167       C  0.90193444  0.08362096  0.64832392    -0.54900
C2168       C  0.91753177  0.11728036  0.64420010     0.09000
C2169       C  0.84947558  0.07907301  0.66096654    -0.54500
C2170       C  0.86529928  0.11281154  0.65838380     0.09600
H2171       H  0.85793432  0.06018749  0.56175964     0.14100
H2172       H  0.90715234  0.15570479  0.62362019    -0.00100
H2173       H  0.91462068  0.07186987  0.66004891     0.14400
H2174       H  0.83021730  0.06494275  0.68455520     0.14200
C2175       C  0.61018186  0.18518242  0.65087861     0.86000
C2176       C  0.62378972  0.21459034  0.68041099    -0.54200
C2177       C  0.61239335  0.23521917  0.67364144     0.08900
C2178       C  0.58776632  0.22441748  0.63686347     0.19900
C2179       C  0.57187588  0.16820486  0.65558645    -0.54900
C2180       C  0.56012574  0.18875885  0.64895245     0.09000
C2181       C  0.61731112  0.20012311  0.60618652    -0.54500
C2182       C  0.60570928  0.22026554  0.59838272     0.09600
H2183       H  0.64127480  0.21853402  0.70518071     0.14100
H2184       H  0.57914606  0.24160285  0.63127386    -0.00100
H2185       H  0.55464163  0.14231007  0.66137543     0.14400
H2186       H  0.62930351  0.19389975  0.58169524     0.14200
O2187       O  0.82543900  0.20112032  0.69443756    -0.85800
O2188       O  0.76971677  0.15095503  0.73801981    -0.82900
C2189       C  0.76284747  0.12805753  0.71285332     0.97600
O2190       O  0.78112819  0.11615387  0.71187738    -0.82900
O2191       O  0.83768137  0.11407904  0.71977380    -0.85500
C2192       C  0.85933648  0.13113169  0.69175253     1.02200
O2193       O  0.87620303  0.16237152  0.69349845    -0.78300
O2194       O  0.87919226  0.22141641  0.70259026    -0.78500
C2195       C  0.85545660  0.22032840  0.68255629     1.02100
O2196       O  0.85259339  0.23094010  0.77108535    -0.85800
O2197       O  0.80210199  0.17567188  0.81510399    -0.82900
C2198       C  0.78225919  0.14575193  0.82583567     0.97700
O2199       O  0.78028704  0.12268538  0.80397207    -0.82900
O2200       O  0.83930686  0.12501081  0.80829045    -0.85500
C2201       C  0.87064100  0.13857327  0.80849923     1.02100
O2202       O  0.88918568  0.16175153  0.78287295    -0.78300
O2203       O  0.88782443  0.21902268  0.79483863    -0.78500
C2204       C  0.87553786  0.23698125  0.79597469     1.02100
Cr2205     Cr  0.81429385  0.18785967  0.75461673     1.93700
Cr2206     Cr  0.81164586  0.12307210  0.76038541     1.93200
Cr2207     Cr  0.87958828  0.18933848  0.74428357     1.39100
O2208       O  0.83544046  0.16655427  0.75299638    -1.23600
C2209       C  0.52382477  0.17650983  0.65259931    -0.00600
C2210       C  0.50479276  0.15393247  0.68544259    -0.12500
C2211       C  0.97006686  0.13520283  0.68521565     0.01600
C2212       C  0.95360597  0.14042890  0.65219681    -0.00700
C2213       C  0.97231636  0.16675740  0.62393099    -0.12400
C2214       C  0.50711026  0.18478014  0.62281342     0.01500
H2215       H  0.51712475  0.14902742  0.71053208     0.14500
H2216       H  0.95990014  0.17207808  0.59942971     0.14500
C2217       C  0.52404703  0.20948743  0.59012590     0.36100
C2218       C  0.95105771  0.11286429  0.71958514     0.36000
N2219       N  0.53663265  0.22913908  0.56342962    -0.44200
N2220       N  0.93377627  0.09460569  0.74577340    -0.44200
C2221       C  0.90084238  0.13604675  0.95337673    -0.00600
C2222       C  0.92525604  0.13528213  0.97716582    -0.12500
C2223       C  0.92047637  0.12837263  0.52077297     0.01600
C2224       C  0.89264946  0.12571867  0.54193206    -0.00700
C2225       C  0.87105070  0.13165196  0.51888358    -0.12400
C2226       C  0.87472877  0.13636656  0.97487222     0.01500
H2227       H  0.94492080  0.13421087  0.96074632     0.14500
H2228       H  0.84953485  0.12952493  0.53469507     0.14500
C2229       C  0.84944548  0.13774684  0.95146630     0.36100
C2230       C  0.94179664  0.11952638  0.54131955     0.36000
N2231       N  0.82935871  0.13891221  0.93232667    -0.44200
N2232       N  0.95875160  0.11190027  0.55700651    -0.44200
C2233       C  0.86316791  0.03758497  0.86135908    -0.00600
C2234       C  0.87561367  0.02303422  0.83440048    -0.12500
C2235       C  0.85818654  0.48892653  0.82800653     0.01600
C2236       C  0.82763348  0.46811703  0.84976654    -0.00700
C2237       C  0.81388026  0.48278163  0.87375767    -0.12400
C2238       C  0.83049818  0.01686805  0.87853340     0.01500
H2239       H  0.89851509  0.03831701  0.81652759     0.14500
H2240       H  0.78997553  0.46754624  0.88961916     0.14500
C2241       C  0.81260863  0.02976715  0.89964338     0.36100
C2242       C  0.87134689  0.47640235  0.79713870     0.36000
N2243       N  0.79819063  0.04003638  0.91647077    -0.44200
N2244       N  0.88200156  0.46655519  0.77229496    -0.44200
C2245       C  0.60605973  0.23106413  0.55415667    -0.00600
C2246       C  0.63536990  0.25884468  0.53828078    -0.12500
C2247       C  0.64197029  0.26336538  0.99533747     0.01600
C2248       C  0.61704425  0.24266323  0.96632004    -0.00700
C2249       C  0.58691974  0.21593316  0.98231594    -0.12400
C2250       C  0.58212396  0.20894530  0.52522289     0.01500
H2251       H  0.65512901  0.27426315  0.56003631     0.14500
H2252       H  0.56906937  0.19784557  0.96059743     0.14500
C2253       C  0.55525179  0.17656804  0.53859510     0.36100
C2254       C  0.67617873  0.28470161  0.98157849     0.36000
N2255       N  0.53412737  0.15041749  0.54920064    -0.44200
N2256       N  0.70387467  0.30034275  0.97097656    -0.44200
C2257       C  0.97465843  0.14955954  0.85802613    -0.00600
C2258       C  0.99025665  0.17878876  0.88190595    -0.12500
C2259       C  0.52525461  0.19781431  0.88618421     0.01600
C2260       C  0.54603625  0.18939246  0.86428318    -0.00700
C2261       C  0.53053627  0.16237061  0.83699222    -0.12400
C2262       C  0.99593180  0.14149936  0.83636282     0.01500
H2263       H  0.97507735  0.18555466  0.89956989     0.14500
H2264       H  0.54568326  0.15611517  0.81820920     0.14500
C2265       C  0.98442470  0.11104299  0.81432638     0.36100
C2266       C  0.53822182  0.22495313  0.91520116     0.36000
N2267       N  0.97689254  0.08639364  0.79816140    -0.44200
N2268       N  0.54799631  0.24656283  0.93870246    -0.44200
C2269       C  0.84799401  0.02588702  0.63644125    -0.00600
C2270       C  0.81406300  0.00597430  0.64864404    -0.12500
C2271       C  0.79714056  0.47166335  0.64963512     0.01600
C2272       C  0.81339570  0.45512827  0.63743889    -0.00700
C2273       C  0.84729677  0.47481091  0.62565839    -0.12400
C2274       C  0.86397840  0.00916637  0.62326755     0.01500
H2275       H  0.79989795  0.01716487  0.65618909     0.14500
H2276       H  0.86052026  0.46308792  0.61554940     0.14500
C2277       C  0.89721288  0.02627918  0.60513926     0.36100
C2278       C  0.76275583  0.45440702  0.66343248     0.36000
N2279       N  0.92389002  0.03958610  0.59075068    -0.44200
N2280       N  0.73521793  0.44202218  0.67435109    -0.44200
C2281       C  0.76175870  0.39830781  0.93703385    -0.00600
C2282       C  0.79059453  0.42164644  0.95798666    -0.12500
C2283       C  0.79236926  0.42089830  0.50212100     0.01600
C2284       C  0.76415403  0.39750804  0.52607010    -0.00700
C2285       C  0.73350528  0.37839724  0.50537352    -0.12400
C2286       C  0.73223819  0.37856207  0.96076590     0.01500
H2287       H  0.81335650  0.43728891  0.93986208     0.14500
H2288       H  0.71140027  0.36090140  0.52345274     0.14500
C2289       C  0.70103435  0.35793226  0.93955686     0.36100
C2290       C  0.82459610  0.44162472  0.52078687     0.36000
N2291       N  0.67610200  0.34166712  0.92223194    -0.44200
N2292       N  0.85114581  0.45849809  0.53377609    -0.44200
C2293       C  0.84770059  0.31486903  0.62269067    -0.00600
C2294       C  0.82683887  0.31222731  0.65651750    -0.12500
C2295       C  0.81100152  0.32998556  0.65699493     0.01600
C2296       C  0.81335589  0.34937493  0.62137980    -0.00700
C2297       C  0.83742719  0.35528606  0.59013842    -0.12400
C2298       C  0.85478615  0.33888495  0.59082717     0.01500
H2299       H  0.82341074  0.29729809  0.68399850     0.14500
H2300       H  0.84309370  0.37307140  0.56500281     0.14500
C2301       C  0.87978673  0.34741126  0.55823268     0.36100
C2302       C  0.79390102  0.32851297  0.69569363     0.36000
N2303       N  0.89978720  0.35427996  0.53207365    -0.44200
N2304       N  0.77967369  0.32655817  0.72659668    -0.44200
C2305       C  0.52406080  0.34387315  0.63696072    -0.00600
C2306       C  0.50603201  0.35273745  0.66360188    -0.12500
C2307       C  0.97041164  0.33514091  0.66393192     0.01600
C2308       C  0.95224951  0.30947304  0.63466909    -0.00700
C2309       C  0.96993178  0.29815152  0.61201303    -0.12400
C2310       C  0.50526121  0.31440227  0.61369388     0.01500
H2311       H  0.51938987  0.37327168  0.68497097     0.14500
H2312       H  0.95662797  0.27679556  0.59212883     0.14500
C2313       C  0.52035028  0.29930931  0.59152059     0.36100
C2314       C  0.95416405  0.34404310  0.69515458     0.36000
N2315       N  0.53150740  0.28603391  0.57411345    -0.44200
N2316       N  0.94167860  0.35142236  0.72067262    -0.44200
C2317       C  0.61859299  0.37092051  0.95076125    -0.00600
C2318       C  0.64688889  0.38439681  0.97646512    -0.12500
C2319       C  0.64293085  0.38285869  0.52162928     0.01600
C2320       C  0.61082408  0.36795581  0.54039095    -0.00700
C2321       C  0.58303699  0.34975409  0.51450511    -0.12400
C2322       C  0.58724768  0.34963455  0.97003228     0.01500
H2323       H  0.67146780  0.39966123  0.96212791     0.14500
H2324       H  0.55823183  0.33835602  0.52786394     0.14500
C2325       C  0.55857925  0.32823751  0.94514777     0.36100
C2326       C  0.67257521  0.40030087  0.54686423     0.36000
N2327       N  0.53641792  0.31005688  0.92445980    -0.44200
N2328       N  0.69628829  0.41442376  0.56710167    -0.44200
C2329       C  0.68831058  0.15429938  0.87421057    -0.00600
C2330       C  0.65835242  0.14103193  0.85186250    -0.12500
C2331       C  0.64240842  0.15865251  0.84701065     0.01600
C2332       C  0.65490000  0.18921549  0.86776519    -0.00700
C2333       C  0.68692562  0.20413981  0.88499353    -0.12400
C2334       C  0.70366316  0.18743763  0.88806812     0.01500
H2335       H  0.64800277  0.11767964  0.83601091     0.14500
H2336       H  0.69883979  0.22905429  0.89704577     0.14500
C2337       C  0.73686402  0.20537682  0.90536949     0.36100
C2338       C  0.61630790  0.14665430  0.81618664     0.36000
N2339       N  0.76348437  0.21984750  0.91899105    -0.44200
N2340       N  0.59577215  0.13708980  0.79090449    -0.44200
C2341       C  0.69094776  0.04658858  0.87047922    -0.00600
C2342       C  0.66667193  0.02895011  0.83951780    -0.12500
C2343       C  0.65065892  0.49458809  0.83612876     0.01600
C2344       C  0.65634605  0.47590095  0.86601568     0.00900
C2345       C  0.68268782  0.49390589  0.89432260    -0.12400
C2346       C  0.69941897  0.02811727  0.89708361     0.01500
H2347       H  0.66074038  0.04231982  0.81716623     0.14500
H2348       H  0.69101164  0.48138585  0.91441268     0.14500
C2349       C  0.72394529  0.04259230  0.92987369     0.36100
C2350       C  0.62826273  0.47890752  0.80146461     0.36000
N2351       N  0.74338878  0.05284462  0.95657055    -0.44200
N2352       N  0.61027453  0.46600867  0.77374306    -0.44200
C2353       C  0.88404047  0.25449485  0.94225802    -0.00600
C2354       C  0.85194557  0.23621927  0.96053106    -0.12500
C2355       C  0.84766568  0.23262991  0.50427134     0.01600
C2356       C  0.87557352  0.24745969  0.53125873    -0.00700
C2357       C  0.90730216  0.26041925  0.51304643    -0.12400
C2358       C  0.91146612  0.26351964  0.96841737     0.01500
H2359       H  0.83043263  0.22806221  0.94066656     0.14500
H2360       H  0.92891353  0.27174032  0.53298978     0.14500
C2361       C  0.94469890  0.27970942  0.95134755     0.36100
C2362       C  0.81411927  0.21845824  0.52064819     0.36000
N2363       N  0.97150167  0.29243086  0.93783760    -0.44200
N2364       N  0.78725295  0.20769083  0.53348891    -0.44200
C2365       C  0.97174893  0.33143891  0.85863626    -0.00600
C2366       C  0.98855545  0.35688718  0.88802326    -0.12500
C2367       C  0.52350555  0.37479073  0.89028546     0.01600
C2368       C  0.54264796  0.36755174  0.86301441    -0.00700
C2369       C  0.52585649  0.34157400  0.83425292    -0.12400
C2370       C  0.99075060  0.32382843  0.83174653     0.01500
H2371       H  0.97425132  0.36254890  0.90946688     0.14500
H2372       H  0.54021459  0.33577147  0.81313689     0.14500
C2373       C  0.97500493  0.29895685  0.79971802     0.36100
C2374       C  0.53881171  0.39899997  0.92324454     0.36000
N2375       N  0.96249194  0.27917851  0.77379816    -0.44200
N2376       N  0.55118312  0.41834198  0.94968950    -0.44200
C2377       C  0.86350148  0.32986165  0.85327228    -0.00600
C2378       C  0.86053648  0.34459777  0.89024661    -0.12500
C2379       C  0.84285270  0.36076604  0.89106234     0.01600
C2380       C  0.82561799  0.36124496  0.85469576    -0.00700
C2381       C  0.83286274  0.35098295  0.81652555    -0.12400
C2382       C  0.85212855  0.33644533  0.81527618     0.01500
H2383       H  0.87272698  0.34412323  0.91886348     0.14500
H2384       H  0.82500959  0.35589881  0.78688496     0.14500
C2385       C  0.86247014  0.33192566  0.77415360     0.36100
C2386       C  0.84483113  0.37823030  0.92917292     0.36000
N2387       N  0.87094377  0.32863905  0.74109188    -0.44200
N2388       N  0.84683821  0.39228789  0.95982813    -0.44200
C2389       C  0.66928814  0.03058317  0.64810286    -0.00600
C2390       C  0.63819928  0.01027872  0.66862245    -0.12500
C2391       C  0.61898771  0.47682512  0.66099644     0.01600
C2392       C  0.63036627  0.46099932  0.63405125    -0.00700
C2393       C  0.66293348  0.48073482  0.61676746    -0.12400
C2394       C  0.68150579  0.01500450  0.62233152     0.01500
H2395       H  0.62885587  0.02108787  0.69038456     0.14500
H2396       H  0.67371028  0.46930801  0.59877819     0.14500
C2397       C  0.71280822  0.03267923  0.59938193     0.36100
C2398       C  0.58700391  0.45981045  0.68240306     0.36000
N2399       N  0.73778983  0.04588355  0.58057171    -0.44200
N2400       N  0.56130824  0.44705924  0.69953048    -0.44200
C2401       C  0.73256760  0.10841634  0.56460207    -0.00600
C2402       C  0.70489555  0.08665143  0.54054345    -0.12500
C2403       C  0.70691723  0.08827226  0.99673949     0.01600
C2404       C  0.73677726  0.11205628  0.97568095    -0.00700
C2405       C  0.76554032  0.13156278  0.99975839    -0.12400
C2406       C  0.76358482  0.12885298  0.54413869     0.01500
H2407       H  0.68105514  0.07048443  0.55630011     0.14500
H2408       H  0.78853851  0.14993798  0.98405128     0.14500
C2409       C  0.79321137  0.14909222  0.56849560     0.36100
C2410       C  0.67650629  0.06704226  0.97419742     0.36000
N2411       N  0.81687807  0.16508800  0.58827474    -0.44200
N2412       N  0.65190273  0.04984440  0.95670097    -0.44200
C2413       C  0.62839163  0.16652346  0.65778462    -0.00600
C2414       C  0.66318505  0.18500955  0.64997233    -0.12500
C2415       C  0.68266407  0.17096208  0.65182439     0.01600
C2416       C  0.66757519  0.13675157  0.65994940    -0.00700
C2417       C  0.63358864  0.11901230  0.67228771    -0.12400
C2418       C  0.61414592  0.13334216  0.67177104     0.01500
H2419       H  0.67541151  0.21101495  0.64180389     0.14500
H2420       H  0.62181480  0.09395301  0.68389153     0.14500
C2421       C  0.58068417  0.11324685  0.68848297     0.36100
C2422       C  0.71822071  0.19255250  0.64502605     0.36000
N2423       N  0.55412774  0.09631143  0.70262507    -0.44200
N2424       N  0.74668497  0.20996929  0.63975867    -0.44200
O2425       O  0.64808165  0.77086719  0.22548424    -0.85800
O2426       O  0.69819525  0.82619339  0.18242113    -0.82900
C2427       C  0.71790809  0.85611317  0.17179919     0.97600
O2428       O  0.71999157  0.87887760  0.19446754    -0.82900
O2429       O  0.66094208  0.87649792  0.18694924    -0.85500
C2430       C  0.62956713  0.86237162  0.18541678     1.02200
O2431       O  0.61063226  0.83904213  0.21070929    -0.78300
O2432       O  0.61250964  0.78231456  0.20140589    -0.78500
C2433       C  0.62479748  0.76443518  0.20107145     1.02100
O2434       O  0.67339403  0.80031323  0.30270116    -0.85800
O2435       O  0.72941588  0.85124176  0.26073696    -0.82900
C2436       C  0.73461331  0.87285151  0.28724010     0.97700
O2437       O  0.71626085  0.88473560  0.28686023    -0.82900
O2438       O  0.65962362  0.88710813  0.27460985    -0.85500
C2439       C  0.63658831  0.87003028  0.30114844     1.02100
O2440       O  0.62083472  0.83879814  0.30053317    -0.78300
O2441       O  0.61967168  0.78001292  0.29374956    -0.78500
C2442       C  0.64326609  0.78076494  0.31386699     1.02100
Cr2443     Cr  0.68541516  0.81399385  0.24282193     1.93700
Cr2444     Cr  0.68734321  0.87831041  0.23640815     1.93200
Cr2445     Cr  0.61947410  0.81183788  0.25099998     1.39100
O2446       O  0.66371551  0.83485702  0.24358402    -1.23600
C2447       C  0.68771023  0.61947153  0.15602935     0.86000
C2448       C  0.70717084  0.62820132  0.11402960    -0.54200
C2449       C  0.72617145  0.61467218  0.10871859     0.08900
C2450       C  0.72466912  0.59382345  0.14713412     0.19900
C2451       C  0.66810613  0.58144498  0.15669074    -0.54900
C2452       C  0.68696359  0.56753948  0.15231968     0.09000
C2453       C  0.71394832  0.62962955  0.19004865    -0.54500
C2454       C  0.73379742  0.61688590  0.18549869     0.09600
H2455       H  0.70291418  0.64067097  0.08830497     0.14100
H2456       H  0.74134498  0.58425235  0.14408031    -0.00100
H2457       H  0.64126573  0.56632789  0.15597972     0.14400
H2458       H  0.71731143  0.64674597  0.21486806     0.14200
C2459       C  0.88111838  0.81000795  0.35653117     0.86000
C2460       C  0.87351586  0.79021209  0.39796681    -0.54200
C2461       C  0.88885197  0.77284658  0.40206531     0.08900
C2462       C  0.91072571  0.77640026  0.36304300     0.19900
C2463       C  0.91926610  0.83135506  0.35382712    -0.54900
C2464       C  0.93501551  0.81423919  0.35702966     0.09000
C2465       C  0.87112352  0.78336875  0.32300645    -0.54500
C2466       C  0.88654040  0.76579332  0.32552777     0.09600
H2467       H  0.85721583  0.78991273  0.42263147     0.14100
H2468       H  0.92315230  0.76226717  0.36610256    -0.00100
H2469       H  0.93278301  0.85803603  0.35035028     0.14400
H2470       H  0.85134047  0.77705614  0.30083162     0.14200
C2471       C  0.70581914  0.63492309  0.38012926     0.86000
C2472       C  0.73777917  0.65136609  0.35393363    -0.54200
C2473       C  0.75647916  0.63782193  0.35833126     0.08900
C2474       C  0.74155310  0.60836200  0.39018868     0.19900
C2475       C  0.68753229  0.59773600  0.36832027    -0.54900
C2476       C  0.70603585  0.58335145  0.37407884     0.09000
C2477       C  0.71639517  0.63516756  0.42569363    -0.54500
C2478       C  0.73495217  0.62140438  0.43164130     0.09600
H2479       H  0.74381533  0.67082222  0.33089944     0.14100
H2480       H  0.75803834  0.59862856  0.39379811    -0.00100
H2481       H  0.66158600  0.58331852  0.35941112     0.14400
H2482       H  0.70737630  0.64306793  0.45199639     0.14200
C2483       C  0.63639561  0.93758405  0.36687280     0.86000
C2484       C  0.64624052  0.92215766  0.33204906    -0.54200
C2485       C  0.62891731  0.88829206  0.33261444     0.08900
C2486       C  0.60250366  0.87259204  0.36861920     0.19900
C2487       C  0.59845781  0.92134306  0.36260316    -0.54900
C2488       C  0.58051638  0.88749842  0.36337975     0.09000
C2489       C  0.63927000  0.92212552  0.40823267    -0.54500
C2490       C  0.62206938  0.88839962  0.40964897     0.09600
H2491       H  0.66577901  0.93715595  0.30896314     0.14100
H2492       H  0.58842961  0.84524759  0.36880762    -0.00100
H2493       H  0.58659423  0.93546067  0.36014682     0.14400
H2494       H  0.65075109  0.93624659  0.43646220     0.14200
C2495       C  0.61366022  0.92317431  0.12842105     0.86000
C2496       C  0.61979850  0.91289595  0.08521588    -0.54200
C2497       C  0.60790287  0.88006036  0.08140626     0.08900
C2498       C  0.58960896  0.85955195  0.12198237     0.19900
C2499       C  0.57547814  0.90118524  0.13327117    -0.54900
C2500       C  0.56227168  0.86772341  0.13121686     0.09000
C2501       C  0.62759698  0.90970589  0.16031315    -0.54500
C2502       C  0.61569072  0.87695022  0.15732729     0.09600
H2503       H  0.63175569  0.93007714  0.05883526     0.14100
H2504       H  0.58063775  0.83303040  0.11970245    -0.00100
H2505       H  0.55950961  0.91101668  0.13402031     0.14400
H2506       H  0.64622751  0.92529509  0.18333012     0.14200
C2507       C  0.86403136  0.79407280  0.12154122     0.86000
C2508       C  0.84970915  0.76469630  0.15290469    -0.54200
C2509       C  0.86413874  0.74651024  0.15027274     0.08900
C2510       C  0.89146865  0.75873288  0.11543112     0.19900
C2511       C  0.90188047  0.81354772  0.12873558    -0.54900
C2512       C  0.91660823  0.79535101  0.12664760     0.09000
C2513       C  0.85949204  0.77781773  0.07869864    -0.54500
C2514       C  0.87387279  0.75965768  0.07451274     0.09600
H2515       H  0.83016594  0.75831303  0.17605424     0.14100
H2516       H  0.90255065  0.74334492  0.11292473    -0.00100
H2517       H  0.91574887  0.83991125  0.13421788     0.14400
H2518       H  0.84707229  0.78174015  0.05271184     0.14200
C2519       C  0.79402021  0.86670772  0.11718984     0.86000
C2520       C  0.78612036  0.87137342  0.07164337    -0.54200
C2521       C  0.76937567  0.88735900  0.06833453     0.08900
C2522       C  0.76154679  0.89714291  0.11148682     0.19900
C2523       C  0.81237536  0.90174771  0.13581429    -0.54900
C2524       C  0.79617536  0.91848352  0.13189215     0.09000
C2525       C  0.75940745  0.84816424  0.13828100    -0.54500
C2526       C  0.74313953  0.86454734  0.13795302     0.09600
H2527       H  0.79337498  0.86319661  0.04389846     0.14100
H2528       H  0.74730814  0.90933051  0.10777563    -0.00100
H2529       H  0.83723660  0.91295689  0.14862122     0.14400
H2530       H  0.74870993  0.82443370  0.15405449     0.14200
C2531       C  0.63662784  0.70753242  0.37229385     0.86000
C2532       C  0.64018370  0.72210811  0.41624877    -0.54200
C2533       C  0.62548100  0.73980119  0.42164497     0.08900
C2534       C  0.60832327  0.74184522  0.38095696     0.19900
C2535       C  0.59852166  0.68761625  0.36636107    -0.54900
C2536       C  0.58326466  0.70535530  0.36966589     0.09000
C2537       C  0.65028790  0.73686772  0.34191757    -0.54500
C2538       C  0.63563707  0.75479340  0.34575832     0.09600
H2539       H  0.65015618  0.71557158  0.44275724     0.14100
H2540       H  0.59776757  0.75757965  0.38392872    -0.00100
H2541       H  0.58425567  0.66107028  0.36331881     0.14400
H2542       H  0.66911219  0.74213986  0.31786709     0.14200
C2543       C  0.88248814  0.57497703  0.36421856     0.86000
C2544       C  0.86933749  0.58979043  0.33356394    -0.54200
C2545       C  0.88443401  0.62307129  0.33526045     0.08900
C2546       C  0.91287116  0.63937562  0.36818282     0.19900
C2547       C  0.92037652  0.59339514  0.35590201    -0.54900
C2548       C  0.93696106  0.62725202  0.35730672     0.09000
C2549       C  0.88049490  0.58759212  0.40777445    -0.54500
C2550       C  0.89592470  0.62103682  0.41031425     0.09600
H2551       H  0.84881985  0.57473536  0.31243174     0.14100
H2552       H  0.92484041  0.66653079  0.36988693    -0.00100
H2553       H  0.93308578  0.58017123  0.35541042     0.14400
H2554       H  0.87015428  0.57164278  0.43555518     0.14200
C2555       C  0.80465572  0.87741145  0.35456499     0.86000
C2556       C  0.77951415  0.86709956  0.31857701    -0.54200
C2557       C  0.76211489  0.88273589  0.31786532     0.08900
C2558       C  0.77181617  0.90778219  0.35384148     0.19900
C2559       C  0.82679822  0.91507119  0.35065975    -0.54900
C2560       C  0.81001855  0.93120801  0.34954321     0.09000
C2561       C  0.78263181  0.87094046  0.39401478    -0.54500
C2562       C  0.76670140  0.88794851  0.39488620     0.09600
H2563       H  0.77405044  0.84725860  0.29738668     0.14100
H2564       H  0.75741003  0.92004016  0.35350918    -0.00100
H2565       H  0.85378370  0.92780589  0.35103469     0.14400
H2566       H  0.78225506  0.85687859  0.42130245     0.14200
C2567       C  0.86635524  0.56491719  0.13493802     0.86000
C2568       C  0.86753510  0.57700619  0.08963701    -0.54200
C2569       C  0.88284046  0.61041942  0.08514093     0.08900
C2570       C  0.89532575  0.62931230  0.12712186     0.19900
C2571       C  0.90293139  0.58491525  0.14944546    -0.54900
C2572       C  0.91813194  0.61851686  0.14483827     0.09000
C2573       C  0.85016849  0.57982630  0.16151287    -0.54500
C2574       C  0.86570394  0.61351758  0.15861995     0.09600
H2575       H  0.85911350  0.56059060  0.06269807     0.14100
H2576       H  0.90735676  0.65644310  0.12356420    -0.00100
H2577       H  0.91587765  0.57358784  0.16178021     0.14400
H2578       H  0.83106885  0.56572188  0.18528696     0.14200
C2579       C  0.60978530  0.68452534  0.15172393     0.86000
C2580       C  0.62387977  0.71414859  0.18105953    -0.54200
C2581       C  0.61272720  0.73498461  0.17424787     0.08900
C2582       C  0.58786513  0.72419649  0.13784316     0.19900
C2583       C  0.57159395  0.66801962  0.15725384    -0.54900
C2584       C  0.56009975  0.68874445  0.15048987     0.09000
C2585       C  0.61670573  0.69926292  0.10695316    -0.54500
C2586       C  0.60538254  0.71964379  0.09925721     0.09600
H2587       H  0.64142709  0.71806147  0.20572759     0.14100
H2588       H  0.57948167  0.74157498  0.13230127    -0.00100
H2589       H  0.55420424  0.64249516  0.16463937     0.14400
H2590       H  0.62852722  0.69288756  0.08240908     0.14200
O2591       O  0.82627939  0.70188900  0.19464479    -0.85800
O2592       O  0.77027855  0.65160947  0.23773287    -0.82900
C2593       C  0.76338845  0.62855410  0.21282821     0.97600
O2594       O  0.78169480  0.61668483  0.21198424    -0.82900
O2595       O  0.83824395  0.61470916  0.22017438    -0.85500
C2596       C  0.85980047  0.63179313  0.19207198     1.02200
O2597       O  0.87665588  0.66302527  0.19385027    -0.78300
O2598       O  0.87996615  0.72215875  0.20327566    -0.78500
C2599       C  0.85635935  0.72113408  0.18301802     1.02100
O2600       O  0.85301845  0.73138022  0.27163285    -0.85800
O2601       O  0.80215490  0.67606716  0.31515856    -0.82900
C2602       C  0.78239139  0.64612150  0.32586378     0.97700
O2603       O  0.78054208  0.62311453  0.30400231    -0.82900
O2604       O  0.83953386  0.62546947  0.30868552    -0.85500
C2605       C  0.87082999  0.63879821  0.30877119     1.02100
O2606       O  0.88944110  0.66197551  0.28317926    -0.78300
O2607       O  0.88815135  0.71932469  0.29547365    -0.78500
C2608       C  0.87589066  0.73731157  0.29659725     1.02100
Cr2609     Cr  0.81476132  0.68842430  0.25475305     1.93700
Cr2610     Cr  0.81205553  0.62359587  0.26062168     1.93200
Cr2611     Cr  0.88004271  0.68982151  0.24478777     1.39100
O2612       O  0.83587135  0.66708339  0.25331351    -1.23600
C2613       C  0.52389849  0.67678271  0.15448681    -0.00600
C2614       C  0.50479449  0.65417679  0.18729523    -0.12500
C2615       C  0.97014698  0.63802849  0.18727955     0.01600
C2616       C  0.95399135  0.64209543  0.15295282    -0.00700
C2617       C  0.97276553  0.66764525  0.12375522    -0.12400
C2618       C  0.50724970  0.68497522  0.12455027     0.01500
H2619       H  0.51706915  0.64930736  0.21250064     0.14500
H2620       H  0.96041903  0.67226721  0.09842618     0.14500
C2621       C  0.52425569  0.70965219  0.09186927     0.36100
C2622       C  0.95068138  0.61702581  0.22244179     0.36000
N2623       N  0.53696754  0.72928742  0.06518436    -0.44200
N2624       N  0.93291866  0.59995364  0.24917780    -0.44200
C2625       C  0.90127050  0.63546214  0.45310642    -0.00600
C2626       C  0.92540837  0.63447117  0.47722394    -0.12500
C2627       C  0.92102592  0.62862936  0.02113190     0.01600
C2628       C  0.89323622  0.62602496  0.04233382    -0.00700
C2629       C  0.87157009  0.63187404  0.01934775    -0.12400
C2630       C  0.87518761  0.63605492  0.47426213     0.01500
H2631       H  0.94504350  0.63319015  0.46106187     0.14500
H2632       H  0.85007681  0.62974809  0.03522125     0.14500
C2633       C  0.85024213  0.63775929  0.45047663     0.36100
C2634       C  0.94240325  0.61984406  0.04167028     0.36000
N2635       N  0.83047295  0.63921933  0.43098299    -0.44200
N2636       N  0.95940767  0.61228925  0.05738104    -0.44200
C2637       C  0.86310487  0.53734292  0.36024978    -0.00600
C2638       C  0.87516085  0.52265066  0.33289578    -0.12500
C2639       C  0.85779831  0.98877581  0.32780842     0.01600
C2640       C  0.82742830  0.96796404  0.34990184    -0.00700
C2641       C  0.81365833  0.98258609  0.37393521    -0.12400
C2642       C  0.83060935  0.51677205  0.37799211     0.01500
H2643       H  0.89784158  0.53782919  0.31456810     0.14500
H2644       H  0.78985238  0.96730474  0.39001342     0.14500
C2645       C  0.81297702  0.52982942  0.39938734     0.36100
C2646       C  0.87088465  0.97619388  0.29691846     0.36000
N2647       N  0.79877937  0.54023871  0.41644879    -0.44200
N2648       N  0.88146543  0.96629329  0.27204635    -0.44200
C2649       C  0.60602280  0.73079716  0.05517086    -0.00600
C2650       C  0.63553342  0.75848960  0.03959523    -0.12500
C2651       C  0.64212572  0.76362879  0.49474122     0.01600
C2652       C  0.61691521  0.74302556  0.46596921    -0.00700
C2653       C  0.58662800  0.71674624  0.48225031    -0.12400
C2654       C  0.58208229  0.70900482  0.02603854     0.01500
H2655       H  0.65527573  0.77361571  0.06152165     0.14500
H2656       H  0.56848276  0.69876648  0.46068155     0.14500
C2657       C  0.55504270  0.67664757  0.03916479     0.36100
C2658       C  0.67627283  0.78476884  0.48060413     0.36000
N2659       N  0.53386218  0.65050863  0.04970333    -0.44200
N2660       N  0.70389273  0.80031033  0.46965437    -0.44200
C2661       C  0.97477083  0.64914680  0.35648290    -0.00600
C2662       C  0.99041306  0.67820296  0.38066383    -0.12500
C2663       C  0.52528647  0.69778800  0.38487763     0.01600
C2664       C  0.54606555  0.68910015  0.36348381    -0.00700
C2665       C  0.53047934  0.66169294  0.33679286    -0.12400
C2666       C  0.99598256  0.64123446  0.33433506     0.01500
H2667       H  0.97529380  0.68482936  0.39872847     0.14500
H2668       H  0.54556525  0.65523485  0.31824563     0.14500
C2669       C  0.98439562  0.61102932  0.31163157     0.36100
C2670       C  0.53824864  0.72548712  0.41297210     0.36000
N2671       N  0.97666581  0.58664791  0.29456950    -0.44200
N2672       N  0.54799253  0.74757849  0.43567779    -0.44200
C2673       C  0.84912960  0.52679523  0.13766931    -0.00600
C2674       C  0.81509914  0.50687195  0.14944076    -0.12500
C2675       C  0.79748211  0.97191328  0.14962133     0.01600
C2676       C  0.81381475  0.95548053  0.13730901    -0.00700
C2677       C  0.84774115  0.97527182  0.12562586    -0.12400
C2678       C  0.86516309  0.51009808  0.12465009     0.01500
H2679       H  0.80089995  0.51804416  0.15684940     0.14500
H2680       H  0.86101352  0.96363948  0.11534010     0.14500
C2681       C  0.89862702  0.52730678  0.10724221     0.36100
C2682       C  0.76303667  0.95454343  0.16317392     0.36000
N2683       N  0.92547941  0.54068636  0.09340573    -0.44200
N2684       N  0.73543732  0.94204469  0.17386778    -0.44200
C2685       C  0.76160195  0.89816013  0.43707431    -0.00600
C2686       C  0.79049786  0.92126703  0.45810320    -0.12500
C2687       C  0.79212855  0.92114436  0.00183205     0.01600
C2688       C  0.76421749  0.89736312  0.02587959    -0.00700
C2689       C  0.73363528  0.87763706  0.00526071    -0.12400
C2690       C  0.73199253  0.87860075  0.46072260     0.01500
H2691       H  0.81331864  0.93678751  0.44002461     0.14500
H2692       H  0.71174679  0.85979506  0.02340761     0.14500
C2693       C  0.70074043  0.85831561  0.43947597     0.36100
C2694       C  0.82424610  0.94252854  0.02042064     0.36000
N2695       N  0.67574301  0.84234411  0.42217203    -0.44200
N2696       N  0.85070248  0.95997957  0.03335393    -0.44200
C2697       C  0.84897793  0.81588132  0.12308521    -0.00600
C2698       C  0.82819552  0.81336225  0.15694091    -0.12500
C2699       C  0.81216215  0.83093570  0.15717006     0.01600
C2700       C  0.81427007  0.85002000  0.12132548    -0.00700
C2701       C  0.83834029  0.85591092  0.09008825    -0.12400
C2702       C  0.85590455  0.83971330  0.09102951     0.01500
H2703       H  0.82494093  0.79864594  0.18458220     0.14500
H2704       H  0.84385611  0.87352624  0.06478292     0.14500
C2705       C  0.88097489  0.84825458  0.05853088     0.36100
C2706       C  0.79502403  0.82952663  0.19579898     0.36000
N2707       N  0.90107313  0.85513781  0.03250550    -0.44200
N2708       N  0.78074297  0.82762272  0.22662635    -0.44200
C2709       C  0.52484338  0.84394471  0.13579960    -0.00600
C2710       C  0.50702056  0.85291999  0.16264647    -0.12500
C2711       C  0.97189400  0.83608393  0.16274884     0.01600
C2712       C  0.95340951  0.81007597  0.13401897    -0.00700
C2713       C  0.97083344  0.79834665  0.11156912    -0.12400
C2714       C  0.50585736  0.81447708  0.11260135     0.01500
H2715       H  0.52054542  0.87347126  0.18394505     0.14500
H2716       H  0.95731160  0.77676395  0.09210270     0.14500
C2717       C  0.52076450  0.79930369  0.09022300     0.36100
C2718       C  0.95599804  0.84549064  0.19385029     0.36000
N2719       N  0.53173937  0.78595230  0.07259319    -0.44200
N2720       N  0.94375496  0.85326658  0.21921424    -0.44200
C2721       C  0.61867756  0.87146402  0.45118683    -0.00600
C2722       C  0.64677445  0.88495028  0.47727469    -0.12500
C2723       C  0.64392810  0.88270743  0.02074038     0.01600
C2724       C  0.61194225  0.86787162  0.03987630    -0.00700
C2725       C  0.58397455  0.84975817  0.01428459    -0.12400
C2726       C  0.58717845  0.85026521  0.47015768     0.01500
H2727       H  0.67146526  0.90018028  0.46322675     0.14500
H2728       H  0.55928219  0.83864990  0.02786494     0.14500
C2729       C  0.55866744  0.82889555  0.44503056     0.36100
C2730       C  0.67377019  0.90036824  0.04557285     0.36000
N2731       N  0.53663572  0.81071773  0.42417062    -0.44200
N2732       N  0.69767127  0.91473643  0.06542388    -0.44200
C2733       C  0.68814428  0.65389200  0.37486334    -0.00600
C2734       C  0.65883522  0.64124987  0.35120368    -0.12500
C2735       C  0.64307787  0.65907392  0.34626416     0.01600
C2736       C  0.65499798  0.68905932  0.36823754    -0.00700
C2737       C  0.68651671  0.70347817  0.38679666    -0.12400
C2738       C  0.70312113  0.68666762  0.38997886     0.01500
H2739       H  0.64898631  0.61832759  0.33441022     0.14500
H2740       H  0.69819124  0.72812105  0.39968619     0.14500
C2741       C  0.73584452  0.70417831  0.40866310     0.36100
C2742       C  0.61793487  0.64810637  0.31421460     0.36000
N2743       N  0.76205827  0.71828627  0.42347836    -0.44200
N2744       N  0.59825834  0.63948610  0.28789934    -0.44200
C2745       C  0.69137228  0.54652554  0.36968102    -0.00600
C2746       C  0.66722650  0.52886611  0.33858999    -0.12500
C2747       C  0.65123174  0.99455539  0.33523866     0.01600
C2748       C  0.65693724  0.97597880  0.36526126     0.00900
C2749       C  0.68334978  0.99406099  0.39341057    -0.12400
C2750       C  0.69985642  0.52809904  0.39638122     0.01500
H2751       H  0.66140074  0.54221479  0.31606083     0.14500
H2752       H  0.69172881  0.98158714  0.41350841     0.14500
C2753       C  0.72454596  0.54257659  0.42896902     0.36100
C2754       C  0.62892365  0.97871991  0.30057242     0.36000
N2755       N  0.74413824  0.55276691  0.45548852    -0.44200
N2756       N  0.61098339  0.96557440  0.27289928    -0.44200
C2757       C  0.88485493  0.75477860  0.44264996    -0.00600
C2758       C  0.85265686  0.73591283  0.46050559    -0.12500
C2759       C  0.84778262  0.73313293  0.00476142     0.01600
C2760       C  0.87580327  0.74776138  0.03158674    -0.00700
C2761       C  0.90740853  0.76030622  0.01316924    -0.12400
C2762       C  0.91220718  0.76410957  0.46908781     0.01500
H2763       H  0.83124150  0.72765660  0.44041870     0.14500
H2764       H  0.92909993  0.77139932  0.03298135     0.14500
C2765       C  0.94566357  0.78153156  0.45261920     0.36100
C2766       C  0.81432614  0.71936315  0.02126408     0.36000
N2767       N  0.97274753  0.79540946  0.43990840    -0.44200
N2768       N  0.78751893  0.70890149  0.03413494    -0.44200
C2769       C  0.97222137  0.83173765  0.35859499    -0.00600
C2770       C  0.98915475  0.85741882  0.38764326    -0.12500
C2771       C  0.52409488  0.87504356  0.39000482     0.01600
C2772       C  0.54316913  0.86771216  0.36275375    -0.00700
C2773       C  0.52630790  0.84162891  0.33415854    -0.12400
C2774       C  0.99106863  0.82366247  0.33210939     0.01500
H2775       H  0.97496317  0.86336516  0.40888283     0.14500
H2776       H  0.54061730  0.83571858  0.31311019     0.14500
C2777       C  0.97520347  0.79840827  0.30056340     0.36100
C2778       C  0.53948479  0.89919240  0.42301781     0.36000
N2779       N  0.96263373  0.77830010  0.27504340    -0.44200
N2780       N  0.55195032  0.91844908  0.44953861    -0.44200
C2781       C  0.86390907  0.83011934  0.35408938    -0.00600
C2782       C  0.86051664  0.84450158  0.39113871    -0.12500
C2783       C  0.84274877  0.86058140  0.39185571     0.01600
C2784       C  0.82584308  0.86131064  0.35527898    -0.00700
C2785       C  0.83354988  0.85144687  0.31709962    -0.12400
C2786       C  0.85292504  0.83701516  0.31598838     0.01500
H2787       H  0.87248604  0.84388755  0.41989282     0.14500
H2788       H  0.82591855  0.85654300  0.28739978     0.14500
C2789       C  0.86368591  0.83277441  0.27498563     0.36100
C2790       C  0.84433125  0.87771278  0.43012477     0.36000
N2791       N  0.87254013  0.82969687  0.24206936    -0.44200
N2792       N  0.84601584  0.89147997  0.46093346    -0.44200
C2793       C  0.67035079  0.53071514  0.14787094    -0.00600
C2794       C  0.63944748  0.51024736  0.16868330    -0.12500
C2795       C  0.61953794  0.97616155  0.16130162     0.01600
C2796       C  0.63097719  0.96084248  0.13354869    -0.00700
C2797       C  0.66337554  0.98100349  0.11596436    -0.12400
C2798       C  0.68238636  0.51538860  0.12132459     0.01500
H2799       H  0.63027995  0.52087651  0.19101617     0.14500
H2800       H  0.67432253  0.96997937  0.09748279     0.14500
C2801       C  0.71364968  0.53332336  0.09831824     0.36100
C2802       C  0.58767327  0.95858306  0.18297761     0.36000
N2803       N  0.73860375  0.54677706  0.07945304    -0.44200
N2804       N  0.56203535  0.94526442  0.20028647    -0.44200
C2805       C  0.73293562  0.60901208  0.06478944    -0.00600
C2806       C  0.70527524  0.58719762  0.04075722    -0.12500
C2807       C  0.70741816  0.58750856  0.49694785     0.01600
C2808       C  0.73704992  0.61128727  0.47548820    -0.00700
C2809       C  0.76608442  0.63073177  0.49911801    -0.12400
C2810       C  0.76392219  0.62959625  0.04437705     0.01500
H2811       H  0.68144792  0.57099577  0.05651812     0.14500
H2812       H  0.78897596  0.64897135  0.48308078     0.14500
C2813       C  0.79341386  0.65020696  0.06878882     0.36100
C2814       C  0.67688853  0.56600117  0.47478416     0.36000
N2815       N  0.81691595  0.66654600  0.08869072    -0.44200
N2816       N  0.65221936  0.54854021  0.45756765    -0.44200
C2817       C  0.62778632  0.66559547  0.15814648    -0.00600
C2818       C  0.66277485  0.68439740  0.15191622    -0.12500
C2819       C  0.68234547  0.67044088  0.15360266     0.01600
C2820       C  0.66728143  0.63607828  0.16033225    -0.00700
C2821       C  0.63286919  0.61774891  0.17035759    -0.12400
C2822       C  0.61315707  0.63173762  0.16917508     0.01500
H2823       H  0.67510574  0.71060396  0.14495117     0.14500
H2824       H  0.62065916  0.59224142  0.18004221     0.14500
C2825       C  0.57848128  0.60977805  0.18015259     0.36100
C2826       C  0.71797814  0.69227592  0.14781132     0.36000
N2827       N  0.55090578  0.59098382  0.18934365    -0.44200
N2828       N  0.74649283  0.70988269  0.14329429    -0.44200
O2829       O  0.64759180  0.77049305  0.72595214    -0.85800
O2830       O  0.69772856  0.82569583  0.68265964    -0.82900
C2831       C  0.71741671  0.85558285  0.67188250     0.97600
O2832       O  0.71953743  0.87843759  0.69441007    -0.82900
O2833       O  0.66057314  0.87627285  0.68694548    -0.85500
C2834       C  0.62919828  0.86216585  0.68546221     1.02200
O2835       O  0.61027712  0.83876724  0.71067408    -0.78300
O2836       O  0.61223665  0.78203672  0.70141539    -0.78500
C2837       C  0.62454116  0.76416463  0.70115859     1.02100
O2838       O  0.67305523  0.80033435  0.80304530    -0.85800
O2839       O  0.72907664  0.85101885  0.76081937    -0.82900
C2840       C  0.73438787  0.87274813  0.78719815     0.97700
O2841       O  0.71602491  0.88462185  0.78681086    -0.82900
O2842       O  0.65933288  0.88699807  0.77461736    -0.85500
C2843       C  0.63619473  0.86989824  0.80104270     1.02100
O2844       O  0.62045678  0.83865602  0.80042932    -0.78300
O2845       O  0.61931849  0.77983921  0.79395814    -0.78500
C2846       C  0.64294272  0.78075721  0.81423299     1.02100
Cr2847     Cr  0.68500971  0.81372213  0.74309421     1.93700
Cr2848     Cr  0.68700697  0.87808377  0.73638955     1.93200
Cr2849     Cr  0.61911895  0.81159986  0.75102158     1.39100
O2850       O  0.66335510  0.83463065  0.74367143    -1.23600
C2851       C  0.68892260  0.62009013  0.65503771     0.86000
C2852       C  0.70880740  0.62872748  0.61334797    -0.54200
C2853       C  0.72745243  0.61473869  0.60844126     0.08900
C2854       C  0.72524169  0.59366512  0.64701924     0.19900
C2855       C  0.66890117  0.58206486  0.65547452    -0.54900
C2856       C  0.68739464  0.56773986  0.65170898     0.09000
C2857       C  0.71476503  0.62985117  0.68947799    -0.54500
C2858       C  0.73429731  0.61671341  0.68538521     0.09600
H2859       H  0.70494976  0.64134285  0.58743545     0.14100
H2860       H  0.74166699  0.58377920  0.64437763    -0.00100
H2861       H  0.64205553  0.56728394  0.65412564     0.14400
H2862       H  0.71814257  0.64702820  0.71421663     0.14200
C2863       C  0.88088577  0.80973021  0.85620243     0.86000
C2864       C  0.87326313  0.79001626  0.89769008    -0.54200
C2865       C  0.88860479  0.77266565  0.90196347     0.08900
C2866       C  0.91054707  0.77618100  0.86299572     0.19900
C2867       C  0.91904109  0.83109783  0.85355941    -0.54900
C2868       C  0.93481786  0.81401468  0.85689457     0.09000
C2869       C  0.87094517  0.78302669  0.82277444    -0.54500
C2870       C  0.88642410  0.76551514  0.82539759     0.09600
H2871       H  0.85696901  0.78981326  0.92229024     0.14100
H2872       H  0.92299996  0.76207938  0.86614742    -0.00100
H2873       H  0.93254477  0.85777301  0.85000793     0.14400
H2874       H  0.85113273  0.77658597  0.80060929     0.14200
C2875       C  0.70635349  0.63560664  0.87964232     0.86000
C2876       C  0.73820984  0.65155004  0.85331145    -0.54200
C2877       C  0.75675104  0.63787126  0.85823565     0.08900
C2878       C  0.74171462  0.60872767  0.89059371     0.19900
C2879       C  0.68781714  0.59826407  0.86852017    -0.54900
C2880       C  0.70613798  0.58373952  0.87466687     0.09000
C2881       C  0.71707883  0.63636431  0.92523926    -0.54500
C2882       C  0.73534769  0.62235067  0.93168689     0.09600
H2883       H  0.74434940  0.67082158  0.82993725     0.14100
H2884       H  0.75803604  0.59883535  0.89458655    -0.00100
H2885       H  0.66187330  0.58386525  0.85962574     0.14400
H2886       H  0.70822649  0.64467628  0.95126654     0.14200
C2887       C  0.63569037  0.93717893  0.86725081     0.86000
C2888       C  0.64548843  0.92195484  0.83202869    -0.54200
C2889       C  0.62836675  0.88808148  0.83247780     0.08900
C2890       C  0.60213569  0.87217877  0.86864158     0.19900
C2891       C  0.59768926  0.92073018  0.86342621    -0.54900
C2892       C  0.57993638  0.88689397  0.86396464     0.09000
C2893       C  0.63891212  0.92165685  0.90833232    -0.54500
C2894       C  0.62189608  0.88793439  0.90953178     0.09600
H2895       H  0.66491506  0.93707411  0.80888025     0.14100
H2896       H  0.58818723  0.84483540  0.86872946    -0.00100
H2897       H  0.58562421  0.93468301  0.86153113     0.14400
H2898       H  0.65049877  0.93570574  0.93657494     0.14200
C2899       C  0.61280361  0.92302554  0.62946669     0.86000
C2900       C  0.61868154  0.91292403  0.58596175    -0.54200
C2901       C  0.60691663  0.88013779  0.58186895     0.08900
C2902       C  0.58897876  0.85948426  0.62248117     0.19900
C2903       C  0.57468359  0.90090219  0.63475177    -0.54900
C2904       C  0.56159200  0.86747939  0.63233436     0.09000
C2905       C  0.62709119  0.90956151  0.66085441    -0.54500
C2906       C  0.61527824  0.87683815  0.65759545     0.09600
H2907       H  0.63055743  0.93023969  0.55968802     0.14100
H2908       H  0.58012992  0.83300741  0.61999610    -0.00100
H2909       H  0.55861765  0.91060839  0.63574361     0.14400
H2910       H  0.64581321  0.92511361  0.68380119     0.14200
C2911       C  0.86327863  0.79321575  0.62121327     0.86000
C2912       C  0.84888088  0.76374054  0.65244246    -0.54200
C2913       C  0.86352070  0.74573177  0.64998443     0.08900
C2914       C  0.89104644  0.75816612  0.61540668     0.19900
C2915       C  0.90107955  0.81282117  0.62882203    -0.54900
C2916       C  0.91594857  0.79475790  0.62689250     0.09000
C2917       C  0.85907525  0.77710039  0.57834270    -0.54500
C2918       C  0.87364085  0.75910248  0.57432413     0.09600
H2919       H  0.82919676  0.75722550  0.67542890     0.14100
H2920       H  0.90227983  0.74290653  0.61301961    -0.00100
H2921       H  0.91481500  0.83915256  0.63454858     0.14400
H2922       H  0.84668872  0.78094042  0.55224080     0.14200
C2923       C  0.79340511  0.86601461  0.61714902     0.86000
C2924       C  0.78549427  0.87070098  0.57163256    -0.54200
C2925       C  0.76881327  0.88674155  0.56836622     0.08900
C2926       C  0.76097212  0.89649030  0.61151381     0.19900
C2927       C  0.81178302  0.90105588  0.63581019    -0.54900
C2928       C  0.79558293  0.91780615  0.63192510     0.09000
C2929       C  0.75879949  0.84748555  0.63827148    -0.54500
C2930       C  0.74255805  0.86390044  0.63796526     0.09600
H2931       H  0.79274457  0.86255365  0.54385470     0.14100
H2932       H  0.74673413  0.90867589  0.60779173    -0.00100
H2933       H  0.83664940  0.91224892  0.64859263     0.14400
H2934       H  0.74812000  0.82377666  0.65410146     0.14200
C2935       C  0.63677488  0.70779875  0.87270923     0.86000
C2936       C  0.64076105  0.72259151  0.91660169    -0.54200
C2937       C  0.62595257  0.74017386  0.92230409     0.08900
C2938       C  0.60844407  0.74204783  0.88182095     0.19900
C2939       C  0.59858961  0.68779943  0.86736202    -0.54900
C2940       C  0.58332440  0.70551848  0.87084494     0.09000
C2941       C  0.65009965  0.73697032  0.84216049    -0.54500
C2942       C  0.63545254  0.75487283  0.84621243     0.09600
H2943       H  0.65096179  0.71612242  0.94291469     0.14100
H2944       H  0.59786861  0.75775996  0.88495917    -0.00100
H2945       H  0.58428438  0.66123993  0.86456198     0.14400
H2946       H  0.66873456  0.74217180  0.81785627     0.14200
C2947       C  0.88264669  0.57530799  0.86514877     0.86000
C2948       C  0.86986162  0.59010985  0.83394350    -0.54200
C2949       C  0.88491751  0.62338690  0.83557071     0.08900
C2950       C  0.91299308  0.63972291  0.86895279     0.19900
C2951       C  0.92062029  0.59374149  0.85754878    -0.54900
C2952       C  0.93716319  0.62759918  0.85881923     0.09000
C2953       C  0.88014230  0.58794595  0.90845994    -0.54500
C2954       C  0.89562550  0.62141373  0.91092391     0.09600
H2955       H  0.84952509  0.57503831  0.81258452     0.14100
H2956       H  0.92495539  0.66688348  0.87058437    -0.00100
H2957       H  0.93335889  0.58054329  0.85763236     0.14400
H2958       H  0.86959129  0.57200982  0.93622308     0.14200
C2959       C  0.80459725  0.87736035  0.85424047     0.86000
C2960       C  0.77939013  0.86707856  0.81833526    -0.54200
C2961       C  0.76203226  0.88275476  0.81768924     0.08900
C2962       C  0.77187781  0.90785617  0.85366368     0.19900
C2963       C  0.82680366  0.91501508  0.85031117    -0.54900
C2964       C  0.81010549  0.93123964  0.84930151     0.09000
C2965       C  0.78268094  0.87096792  0.89377239    -0.54500
C2966       C  0.76680483  0.88802384  0.89471384     0.09600
H2967       H  0.77379948  0.84717728  0.79718760     0.14100
H2968       H  0.75751389  0.92015762  0.85340374    -0.00100
H2969       H  0.85378154  0.92767664  0.85071982     0.14400
H2970       H  0.78236598  0.85693166  0.92105533     0.14200
C2971       C  0.86571389  0.56434138  0.63409332     0.86000
C2972       C  0.86673796  0.57665968  0.58897558    -0.54200
C2973       C  0.88236948  0.61012560  0.58468228     0.08900
C2974       C  0.89528711  0.62882735  0.62680835     0.19900
C2975       C  0.90237082  0.58394669  0.64820472    -0.54900
C2976       C  0.91794683  0.61760232  0.64399457     0.09000
C2977       C  0.84996985  0.57942198  0.66121182    -0.54500
C2978       C  0.86579084  0.61315216  0.65857478     0.09600
H2979       H  0.85806501  0.56033443  0.56194615     0.14100
H2980       H  0.90750770  0.65598931  0.62349609    -0.00100
H2981       H  0.91510451  0.57222952  0.65988962     0.14400
H2982       H  0.83083399  0.56533242  0.68495213     0.14200
C2983       C  0.61082083  0.68507924  0.65055943     0.86000
C2984       C  0.62435798  0.71435292  0.68039294    -0.54200
C2985       C  0.61284206  0.73492766  0.67390802     0.08900
C2986       C  0.58818697  0.72422624  0.63721640     0.19900
C2987       C  0.57249813  0.66804408  0.65542661    -0.54900
C2988       C  0.56061996  0.68851025  0.64912912     0.09000
C2989       C  0.61791312  0.70027812  0.60603430    -0.54500
C2990       C  0.60615864  0.72034275  0.59857071     0.09600
H2991       H  0.64187692  0.71826755  0.70509987     0.14100
H2992       H  0.57955821  0.74142915  0.63192807    -0.00100
H2993       H  0.55527003  0.64223093  0.66137847     0.14400
H2994       H  0.62999193  0.69428403  0.58139929     0.14200
O2995       O  0.82596846  0.70124208  0.69470009    -0.85800
O2996       O  0.77035295  0.65094828  0.73825513    -0.82900
C2997       C  0.76364480  0.62809414  0.71307888     0.97600
O2998       O  0.78200044  0.61627219  0.71221785    -0.82900
O2999       O  0.83870045  0.61445596  0.72053175    -0.85500
C3000       C  0.86001592  0.63148475  0.69214174     1.02200
O3001       O  0.87670694  0.66272974  0.69368926    -0.78300
O3002       O  0.87974051  0.72174097  0.70299169    -0.78500
C3003       C  0.85598109  0.72053102  0.68286481     1.02100
O3004       O  0.85307829  0.73109357  0.77137579    -0.85800
O3005       O  0.80266972  0.67586178  0.81537649    -0.82900
C3006       C  0.78278637  0.64595419  0.82608441     0.97700
O3007       O  0.78083857  0.62288833  0.80424201    -0.82900
O3008       O  0.83998708  0.62563659  0.80900746    -0.85500
C3009       C  0.87128119  0.63898291  0.80893538     1.02100
O3010       O  0.88979219  0.66195981  0.78303618    -0.78300
O3011       O  0.88831767  0.71920974  0.79523292    -0.78500
C3012       C  0.87593490  0.73708995  0.79639803     1.02100
Cr3013     Cr  0.81483058  0.68800210  0.75488640     1.93700
Cr3014     Cr  0.81240320  0.62336225  0.76089035     1.93200
Cr3015     Cr  0.88017833  0.68963094  0.74458443     1.39100
O3016       O  0.83606164  0.66680473  0.75333592    -1.23600
C3017       C  0.52424388  0.67606268  0.65295242    -0.00600
C3018       C  0.50516945  0.65279940  0.68515516    -0.12500
C3019       C  0.97048542  0.63559622  0.68493470     0.01600
C3020       C  0.95402613  0.64076549  0.65188294    -0.00700
C3021       C  0.97272989  0.66699583  0.62349455    -0.12400
C3022       C  0.50748654  0.68471715  0.62375934     0.01500
H3023       H  0.51748695  0.64748814  0.70983927     0.14500
H3024       H  0.96029185  0.67230174  0.59900578     0.14500
C3025       C  0.52440925  0.70993561  0.59167623     0.36100
C3026       C  0.95143788  0.61354482  0.71951785     0.36000
N3027       N  0.53709036  0.72997015  0.56544291    -0.44200
N3028       N  0.93405675  0.59555380  0.74585333    -0.44200
C3029       C  0.90118577  0.63586400  0.95369376    -0.00600
C3030       C  0.92548707  0.63492333  0.97751745    -0.12500
C3031       C  0.92079375  0.62829600  0.52086433     0.01600
C3032       C  0.89294597  0.62575654  0.54183696    -0.00700
C3033       C  0.87135283  0.63152925  0.51849778    -0.12400
C3034       C  0.87517765  0.63640625  0.97513210     0.01500
H3035       H  0.94507752  0.63370091  0.96113676     0.14500
H3036       H  0.84978459  0.62942005  0.53412733     0.14500
C3037       C  0.84999673  0.63793335  0.95168452     0.36100
C3038       C  0.94208015  0.61951390  0.54164466     0.36000
N3039       N  0.82998083  0.63920622  0.93252318    -0.44200
N3040       N  0.95904494  0.61196035  0.55747553    -0.44200
C3041       C  0.86333396  0.53766569  0.86113853    -0.00600
C3042       C  0.87574448  0.52305692  0.83423521    -0.12500
C3043       C  0.85815811  0.98890252  0.82820257     0.01600
C3044       C  0.82763597  0.96802744  0.84997766    -0.00700
C3045       C  0.81385063  0.98261394  0.87406821    -0.12400
C3046       C  0.83059829  0.51704316  0.87815550     0.01500
H3047       H  0.89869358  0.53829171  0.81643210     0.14500
H3048       H  0.78997153  0.96731299  0.88996560     0.14500
C3049       C  0.81271431  0.53006917  0.89897628     0.36100
C3050       C  0.87137616  0.97644376  0.79732493     0.36000
N3051       N  0.79830077  0.54045748  0.91552206    -0.44200
N3052       N  0.88208551  0.96666496  0.77246187    -0.44200
C3053       C  0.60644363  0.73138825  0.55451203    -0.00600
C3054       C  0.63592837  0.75891167  0.53855775    -0.12500
C3055       C  0.64207468  0.76339184  0.99584801     0.01600
C3056       C  0.61713161  0.74283659  0.96674958    -0.00700
C3057       C  0.58685971  0.71627847  0.98267133    -0.12400
C3058       C  0.58215413  0.70961952  0.52566688     0.01500
H3059       H  0.65589223  0.77403488  0.56021952     0.14500
H3060       H  0.56895069  0.69830500  0.96090212     0.14500
C3061       C  0.55507635  0.67734336  0.53899076     0.36100
C3062       C  0.67632241  0.78464694  0.98218692     0.36000
N3063       N  0.53378847  0.65125276  0.54952980    -0.44200
N3064       N  0.70404651  0.80025452  0.97169591    -0.44200
C3065       C  0.97494347  0.64953207  0.85825254    -0.00600
C3066       C  0.99051344  0.67859039  0.88245549    -0.12500
C3067       C  0.52537469  0.69795871  0.88643773     0.01600
C3068       C  0.54609455  0.68925925  0.86489340    -0.00700
C3069       C  0.53043726  0.66188707  0.83816092    -0.12400
C3070       C  0.99618594  0.64164598  0.83618987     0.01500
H3071       H  0.97533111  0.68517997  0.90045234     0.14500
H3072       H  0.54546784  0.65538012  0.81957721     0.14500
C3073       C  0.98467140  0.61130255  0.81387425     0.36100
C3074       C  0.53842981  0.72548783  0.91483068     0.36000
N3075       N  0.97713968  0.58674834  0.79743845    -0.44200
N3076       N  0.54827462  0.74741927  0.93782258    -0.44200
C3077       C  0.84833794  0.52619622  0.63664712    -0.00600
C3078       C  0.81443003  0.50635393  0.64897760    -0.12500
C3079       C  0.79684363  0.97128000  0.64929233     0.01600
C3080       C  0.81320425  0.95481217  0.63723765    -0.00700
C3081       C  0.84712662  0.97457374  0.62558103    -0.12400
C3082       C  0.86422355  0.50940847  0.62335306     0.01500
H3083       H  0.80032894  0.51759540  0.65660363     0.14500
H3084       H  0.86043510  0.96291919  0.61554407     0.14500
C3085       C  0.89741366  0.52645169  0.60509551     0.36100
C3086       C  0.76241958  0.95394835  0.66293393     0.36000
N3087       N  0.92405062  0.53969158  0.59059032    -0.44200
N3088       N  0.73484032  0.94147764  0.67370716    -0.44200
C3089       C  0.76167970  0.89817122  0.93694141    -0.00600
C3090       C  0.79051563  0.92153522  0.95785546    -0.12500
C3091       C  0.79203235  0.92066044  0.50206383     0.01600
C3092       C  0.76393329  0.89702347  0.52597178    -0.00700
C3093       C  0.73333215  0.87767891  0.50526654    -0.12400
C3094       C  0.73218483  0.87840067  0.96070741     0.01500
H3095       H  0.81325980  0.93718537  0.93970398     0.14500
H3096       H  0.71131474  0.85997355  0.52332334     0.14500
C3097       C  0.70097617  0.85770042  0.93954261     0.36100
C3098       C  0.82423028  0.94154096  0.52072607     0.36000
N3099       N  0.67603448  0.84138194  0.92226006    -0.44200
N3100       N  0.85076115  0.95853462  0.53370706    -0.44200
C3101       C  0.84810436  0.81491611  0.62263206    -0.00600
C3102       C  0.82739089  0.81244107  0.65655008    -0.12500
C3103       C  0.81151549  0.83016411  0.65693849     0.01600
C3104       C  0.81362051  0.84928291  0.62115341    -0.00700
C3105       C  0.83755764  0.85505492  0.58977674    -0.12400
C3106       C  0.85501065  0.83874540  0.59056673     0.01500
H3107       H  0.82410090  0.79766093  0.68414019     0.14500
H3108       H  0.84307558  0.87268113  0.56448402     0.14500
C3109       C  0.87991641  0.84716803  0.55786987     0.36100
C3110       C  0.79458230  0.82893000  0.69567381     0.36000
N3111       N  0.89983675  0.85394453  0.53162844    -0.44200
N3112       N  0.78046500  0.82720824  0.72657774    -0.44200
C3113       C  0.52417860  0.84361107  0.63666216    -0.00600
C3114       C  0.50616452  0.85240353  0.66344014    -0.12500
C3115       C  0.97083715  0.83528692  0.66390252     0.01600
C3116       C  0.95268087  0.80955757  0.63471278    -0.00700
C3117       C  0.97036680  0.79817062  0.61219409    -0.12400
C3118       C  0.50538636  0.81429719  0.61313587     0.01500
H3119       H  0.51952851  0.87284228  0.68494494     0.14500
H3120       H  0.95706422  0.77677200  0.59237011     0.14500
C3121       C  0.52049744  0.79946287  0.59043479     0.36100
C3122       C  0.95458624  0.84427471  0.69501335     0.36000
N3123       N  0.53167040  0.78642605  0.57248585    -0.44200
N3124       N  0.94208924  0.85172523  0.72042580    -0.44200
C3125       C  0.61885587  0.87088121  0.95081886    -0.00600
C3126       C  0.64714709  0.88440308  0.97653829    -0.12500
C3127       C  0.64323301  0.88303195  0.52145123     0.01600
C3128       C  0.61113283  0.86819055  0.54022615    -0.00700
C3129       C  0.58333469  0.85024398  0.51429195    -0.12400
C3130       C  0.58749938  0.84971144  0.97012504     0.01500
H3131       H  0.67172591  0.89964730  0.96219495     0.14500
H3132       H  0.55854335  0.83906835  0.52760641     0.14500
C3133       C  0.55874748  0.82851876  0.94529776     0.36100
C3134       C  0.67288003  0.90027568  0.54671094     0.36000
N3135       N  0.53648233  0.81052274  0.92463833    -0.44200
N3136       N  0.69659738  0.91422909  0.56697169    -0.44200
C3137       C  0.68879596  0.65465331  0.87400865    -0.00600
C3138       C  0.65898608  0.64156974  0.85135339    -0.12500
C3139       C  0.64301740  0.65920165  0.84675542     0.01600
C3140       C  0.65521696  0.68942537  0.86824787    -0.00700
C3141       C  0.68715745  0.70425728  0.88570797    -0.12400
C3142       C  0.70403175  0.68766906  0.88830665     0.01500
H3143       H  0.64882882  0.61840718  0.83506888     0.14500
H3144       H  0.69895713  0.72904780  0.89814798     0.14500
C3145       C  0.73727382  0.70562049  0.90549038     0.36100
C3146       C  0.61732101  0.64774486  0.81540709     0.36000
N3147       N  0.76394281  0.72012110  0.91896313    -0.44200
N3148       N  0.59719313  0.63870604  0.78962769    -0.44200
C3149       C  0.69131685  0.54686774  0.87042540    -0.00600
C3150       C  0.66738588  0.52927454  0.83908299    -0.12500
C3151       C  0.64991056  0.99426593  0.83657275     0.01600
C3152       C  0.65605977  0.97560961  0.86595017     0.00900
C3153       C  0.68271995  0.99366634  0.89382671    -0.12400
C3154       C  0.69949419  0.52836503  0.89742445     0.01500
H3155       H  0.66176619  0.54269091  0.81640098     0.14500
H3156       H  0.69129315  0.98117146  0.91354554     0.14500
C3157       C  0.72393612  0.54282523  0.93031618     0.36100
C3158       C  0.62684892  0.97856888  0.80255753     0.36000
N3159       N  0.74334170  0.55302219  0.95705876    -0.44200
N3160       N  0.60822487  0.96566455  0.77543933    -0.44200
C3161       C  0.88457687  0.75472394  0.94269986    -0.00600
C3162       C  0.85241517  0.73617741  0.96073977    -0.12500
C3163       C  0.84790437  0.73257418  0.50450067     0.01600
C3164       C  0.87584315  0.74732670  0.53144843    -0.00700
C3165       C  0.90754669  0.76023780  0.51316815    -0.12400
C3166       C  0.91194692  0.76393309  0.96904932     0.01500
H3167       H  0.83096865  0.72797465  0.94073096     0.14500
H3168       H  0.92918029  0.77145330  0.53308549     0.14500
C3169       C  0.94533276  0.78093105  0.95238203     0.36100
C3170       C  0.81437305  0.71841844  0.52093086     0.36000
N3171       N  0.97233454  0.79444602  0.93941853    -0.44200
N3172       N  0.78751812  0.70764921  0.53381741    -0.44200
C3173       C  0.97203309  0.83155900  0.85846287    -0.00600
C3174       C  0.98891876  0.85717026  0.88760537    -0.12500
C3175       C  0.52350407  0.87374884  0.89162790     0.01600
C3176       C  0.54258669  0.86692472  0.86365121    -0.00700
C3177       C  0.52573206  0.84124587  0.83452020    -0.12400
C3178       C  0.99094440  0.82371094  0.83174772     0.01500
H3179       H  0.97468271  0.86299875  0.90893324     0.14500
H3180       H  0.54005158  0.83575139  0.81289165     0.14500
C3181       C  0.97512796  0.79866696  0.79993343     0.36100
C3182       C  0.53896728  0.89774392  0.92479601     0.36000
N3183       N  0.96259455  0.77875792  0.77416895    -0.44200
N3184       N  0.55149820  0.91693454  0.95137598    -0.44200
C3185       C  0.86365823  0.82983520  0.85369292    -0.00600
C3186       C  0.86059230  0.84454682  0.89063482    -0.12500
C3187       C  0.84285791  0.86067084  0.89135657     0.01600
C3188       C  0.82570268  0.86116471  0.85491463    -0.00700
C3189       C  0.83302114  0.85090189  0.81679713    -0.12400
C3190       C  0.85230863  0.83638154  0.81565061     0.01500
H3191       H  0.87275238  0.84410853  0.91929756     0.14500
H3192       H  0.82521405  0.85580860  0.78712088     0.14500
C3193       C  0.86265733  0.83177471  0.77458143     0.36100
C3194       C  0.84467238  0.87806120  0.92947101     0.36000
N3195       N  0.87115435  0.82839452  0.74158707    -0.44200
N3196       N  0.84651059  0.89205586  0.96012110    -0.44200
C3197       C  0.67034528  0.53083366  0.64767382    -0.00600
C3198       C  0.63918511  0.51080104  0.66813253    -0.12500
C3199       C  0.61843121  0.97621960  0.66170524     0.01600
C3200       C  0.63008846  0.96068635  0.63466261    -0.00700
C3201       C  0.66254997  0.98071408  0.61728961    -0.12400
C3202       C  0.68229299  0.51501780  0.62194100     0.01500
H3203       H  0.63005708  0.52181478  0.68989698     0.14500
H3204       H  0.67355848  0.96952278  0.59927721     0.14500
C3205       C  0.71373867  0.53248671  0.59927573     0.36100
C3206       C  0.58663915  0.95873677  0.68355976     0.36000
N3207       N  0.73882672  0.54558300  0.58069900    -0.44200
N3208       N  0.56106037  0.94548468  0.70101308    -0.44200
C3209       C  0.73395875  0.60855900  0.56460814    -0.00600
C3210       C  0.70613894  0.58647842  0.54099218    -0.12500
C3211       C  0.70693058  0.58850604  0.99673632     0.01600
C3212       C  0.73686161  0.61217331  0.97570815    -0.00700
C3213       C  0.76566626  0.63148741  0.99979082    -0.12400
C3214       C  0.76477988  0.62898443  0.54372369     0.01500
H3215       H  0.68245794  0.57029868  0.55707487     0.14500
H3216       H  0.78871881  0.64976065  0.98409541     0.14500
C3217       C  0.79459969  0.64942518  0.56765539     0.36100
C3218       C  0.67647634  0.56746902  0.97416966     0.36000
N3219       N  0.81842507  0.66557948  0.58709789    -0.44200
N3220       N  0.65184482  0.55043858  0.95663679    -0.44200
C3221       C  0.62908988  0.66637839  0.65698218    -0.00600
C3222       C  0.66404113  0.68514886  0.65024563    -0.12500
C3223       C  0.68365890  0.67120029  0.65202812     0.01600
C3224       C  0.66862865  0.63688115  0.65912230    -0.00700
C3225       C  0.63437251  0.61874060  0.67004736    -0.12400
C3226       C  0.61469698  0.63277539  0.66916508     0.01500
H3227       H  0.67629152  0.71130345  0.64300308     0.14500
H3228       H  0.62238777  0.59345362  0.68068757     0.14500
C3229       C  0.58051678  0.61143506  0.68275434     0.36100
C3230       C  0.71930974  0.69299919  0.64642362     0.36000
N3231       N  0.55335473  0.59325437  0.69417879    -0.44200
N3232       N  0.74785692  0.71056613  0.64219863    -0.44200
loop_ 
_geom_bond_atom_site_label_1 
_geom_bond_atom_site_label_2 
_geom_bond_distance 
_geom_bond_site_symmetry_2 
_ccdc_geom_bond_type 
O1          Cr19   1.959       .  S
O1            C9   1.250       .  A
O2          Cr19   1.986       .  S
O2            C3   1.266       .  A
C3            O4   1.266       .  A
C3          C102   1.481       .  S
O4          Cr20   2.015       .  S
O5          Cr20   1.984       .  S
O5            C6   1.265       .  A
C6            O7   1.266       .  A
C6           C78   1.481       .  S
O7          Cr21   2.014       .  S
O8          Cr21   2.023       .  S
O8            C9   1.263       .  A
C9          C157   1.481       .  S
O10         Cr19   1.976       .  S
O10          C18   1.267       .  A
O11         Cr19   1.981       .  S
O11          C12   1.254       .  A
C12          O13   1.265       .  A
C12         C133   1.493       .  S
O13         Cr20   2.027       .  S
O14         Cr20   1.978       .  S
O14          C15   1.261       .  A
C15          O16   1.267       .  A
C15          C61   1.490       .  S
O16         Cr21   2.013       .  S
O17         Cr21   2.032       .  S
O17          C18   1.274       .  A
C18         C114   1.480       .  S
Cr19         O22   1.770       .  S
Cr20         O22   1.772       .  S
Cr21         O22   1.787       .  S
C23          C24   1.532       .  S
C23          C29   1.525       .  S
C23          C27   1.541       .  S
C23         C396   1.547       .  S
C24          H31   1.087       .  S
C24          C25   1.367       .  D
C25         C381   1.479       .  S
C25          C26   1.543       .  S
C26          C30   1.546       .  S
C26          C28   1.551       .  S
C26          H32   1.106       .  S
C27          H33   1.078       .  S
C27          C28   1.372       .  D
C28         C369   1.508       .  S
C29          H34   1.087       .  S
C29          C30   1.370       .  D
C30         C169   1.488       .  S
C35          C36   1.535       .  S
C35          C41   1.533       .  S
C35          C39   1.533       .  S
C35         C357   1.556       .  S
C36          H43   1.086       .  S
C36          C37   1.368       .  D
C37         C333   1.495       .  S
C37          C38   1.552       .  S
C38          C42   1.546       .  S
C38          C40   1.554       .  S
C38          H44   1.110       .  S
C39          H45   1.086       .  S
C39          C40   1.371       .  D
C40         C345   1.497       .  S
C41          H46   1.083       .  S
C41          C42   1.376       .  D
C42         C184   1.495       .  S
C47          C48   1.516       .  S
C47          C53   1.527       .  S
C47          C51   1.559       .  S
C47         C309   1.534       .  S
C48          H55   1.088       .  S
C48          C49   1.353       .  D
C49         C178   1.473       .  S
C49          C50   1.553       .  S
C50          C54   1.552       .  S
C50          C52   1.551       .  S
C50          H56   1.106       .  S
C51          H57   1.083       .  S
C51          C52   1.383       .  D
C52         C321   1.519       .  S
C53          H58   1.088       .  S
C53          C54   1.361       .  D
C54         C384   1.487       .  S
C59          C60   1.527       .  S
C59          C65   1.540       .  S
C59          C63   1.540       .  S
C59         C324   1.555       .  S
C60          H67   1.086       .  S
C60          C61   1.373       .  D
C61          C62   1.547       .  S
C62          C66   1.550       .  S
C62          C64   1.551       .  S
C62          H68   1.108       .  S
C63          H69   1.085       .  S
C63          C64   1.371       .  D
C64         C348   1.498       .  S
C65          H70   1.083       .  S
C65          C66   1.368       .  D
C66         C297   1.501       .  S
C71          C72   1.530       .  S
C71          C77   1.523       .  S
C71          C75   1.540       .  S
C71         C372   1.543       .  S
C72          H79   1.087       .  S
C72          C73   1.364       .  D
C73         C300   1.490       .  S
C73          C74   1.556       .  S
C74          C78   1.553       .  S
C74          C76   1.562       .  S
C74          H80   1.106       .  S
C75          H81   1.081       .  S
C75          C76   1.376       .  D
C76         C285   1.519       .  S
C77          H82   1.088       .  S
C77          C78   1.358       .  D
C83          C84   1.542       .  S
C83          C89   1.524       .  S
C83          C87   1.538       .  S
C83         C273   1.543       .  S
C84          H91   1.081       .  S
C84          C85   1.363       .  D
C85         C175   1.478       .  S
C85          C86   1.546       .  S
C86          C90   1.558       .  S
C86          C88   1.553       .  S
C86          H92   1.109       .  S
C87          H93   1.084       .  S
C87          C88   1.374       .  D
C88         C288   1.514       .  S
C89          H94   1.086       .  S
C89          C90   1.363       .  D
C90         C336   1.494       .  S
C95          C96   1.535       .  S
C95         C101   1.531       .  S
C95          C99   1.543       .  S
C95         C276   1.543       .  S
C96         H103   1.086       .  S
C96          C97   1.365       .  D
C97         C264   1.487       .  S
C97          C98   1.548       .  S
C98         C102   1.556       .  S
C98         C100   1.548       .  S
C98         H104   1.106       .  S
C99         H105   1.085       .  S
C99         C100   1.376       .  D
C100        C252   1.515       .  S
C101        H106   1.083       .  S
C101        C102   1.358       .  D
C107        C108   1.528       .  S
C107        C113   1.522       .  S
C107        C111   1.543       .  S
C107        C312   1.537       .  S
C108        H115   1.088       .  S
C108        C109   1.361       .  D
C109        C228   1.486       .  S
C109        C110   1.557       .  S
C110        C114   1.551       .  S
C110        C112   1.548       .  S
C110        H116   1.105       .  S
C111        H117   1.081       .  S
C111        C112   1.378       .  D
C112        C240   1.516       .  S
C113        H118   1.087       .  S
C113        C114   1.363       .  D
C119        C120   1.516       .  S
C119        C125   1.527       .  S
C119        C123   1.540       .  S
C119        C213   1.532       .  S
C120        H127   1.088       .  S
C120        C121   1.357       .  D
C121        C181   1.482       .  S
C121        C122   1.557       .  S
C122        C126   1.551       .  S
C122        C124   1.564       .  S
C122        H128   1.109       .  S
C123        H129   1.079       .  S
C123        C124   1.375       .  D
C124        C237   1.519       .  S
C125        H130   1.087       .  S
C125        C126   1.364       .  D
C126        C201   1.483       .  S
C131        C132   1.537       .  S
C131        C137   1.538       .  S
C131        C135   1.532       .  S
C131        C360   1.554       .  S
C132        H139   1.079       .  S
C132        C133   1.374       .  D
C133        C134   1.542       .  S
C134        C138   1.542       .  S
C134        C136   1.545       .  S
C134        H140   1.110       .  S
C135        H141   1.085       .  S
C135        C136   1.369       .  D
C136        C216   1.493       .  S
C137        H142   1.085       .  S
C137        C138   1.371       .  D
C138        C261   1.483       .  S
C143        C144   1.531       .  S
C143        C149   1.540       .  S
C143        C147   1.544       .  S
C143        C249   1.553       .  S
C144        H151   1.087       .  S
C144        C145   1.365       .  D
C145        C204   1.489       .  S
C145        C146   1.545       .  S
C146        C150   1.540       .  S
C146        C148   1.531       .  S
C146        H152   1.110       .  S
C147        H153   1.084       .  S
C147        C148   1.374       .  D
C148        C192   1.483       .  S
C149        H154   1.082       .  S
C149        C150   1.372       .  D
C150        C172   1.491       .  S
C155        C156   1.527       .  S
C155        C161   1.530       .  S
C155        C159   1.549       .  S
C155        C393   1.550       .  S
C156        H163   1.087       .  S
C156        C157   1.369       .  D
C157        C158   1.536       .  S
C158        C162   1.547       .  S
C158        C160   1.542       .  S
C158        H164   1.107       .  S
C159        H165   1.072       .  S
C159        C160   1.376       .  D
C160        C189   1.494       .  S
C161        H166   1.087       .  S
C161        C162   1.359       .  D
C162        C225   1.483       .  S
O167       Cr185   1.979       .  S
O167        C175   1.267       .  A
O168       Cr185   1.980       .  S
O168        C169   1.254       .  A
C169        O170   1.262       .  A
O170       Cr186   2.019       .  S
O171       Cr186   1.971       .  S
O171        C172   1.261       .  A
C172        O173   1.268       .  A
O173       Cr187   2.016       .  S
O174       Cr187   2.024       .  S
O174        C175   1.271       .  A
O176       Cr185   1.966       .  S
O176        C184   1.252       .  A
O177       Cr185   1.985       .  S
O177        C178   1.268       .  A
C178        O179   1.265       .  A
O179       Cr186   2.007       .  S
O180       Cr186   1.980       .  S
O180        C181   1.264       .  A
C181        O182   1.265       .  A
O182       Cr187   2.016       .  S
O183       Cr187   2.040       .  S
O183        C184   1.267       .  A
Cr185       O188   1.766       .  S
Cr186       O188   1.774       .  S
Cr187       O188   1.788       .  S
C189        C190   1.412       .  A
C189        C194   1.417       .  A
C190       C1807   1.402   1_455  A
C190        H195   1.085       .  S
C191        C192   1.404       .  A
C191       C1806   1.402       .  A
C191        C198   1.442       .  S
C192        C193   1.398       .  A
C193       C1810   1.395       .  A
C193        H196   1.084       .  S
C194       C1809   1.395   1_455  A
C194        C197   1.439       .  S
C197        N199   1.156       .  T
C198        N200   1.157       .  T
C201        C202   1.400       .  A
C201        C206   1.411       .  A
C202        C607   1.399       .  A
C202        H207   1.086       .  S
C203        C204   1.415       .  A
C203        C606   1.399   1_554  A
C203        C210   1.442       .  S
C204        C205   1.405       .  A
C205        C610   1.408   1_554  A
C205        H208   1.084       .  S
C206        C609   1.409       .  A
C206        C209   1.443       .  S
C209        N211   1.157       .  T
C210        N212   1.157       .  T
C213        C214   1.409       .  A
C213        C218   1.421       .  A
C214       C1023   1.400   1_545  A
C214        H219   1.082       .  S
C215        C216   1.414       .  A
C215       C1022   1.400       .  A
C215        C222   1.445       .  S
C216        C217   1.402       .  A
C217       C1026   1.399       .  A
C217        H220   1.083       .  S
C218       C1025   1.398   1_545  A
C218        C221   1.445       .  S
C221        N223   1.157       .  T
C222        N224   1.157       .  T
C225        C226   1.401       .  A
C225        C230   1.412       .  A
C226        C631   1.405   1_554  A
C226        H231   1.085       .  S
C227        C228   1.415       .  A
C227        C630   1.405       .  A
C227        C234   1.443       .  S
C228        C229   1.402       .  A
C229        C634   1.399       .  A
C229        H232   1.084       .  S
C230        C633   1.398   1_554  A
C230        C233   1.444       .  S
C233        N235   1.157       .  T
C234        N236   1.157       .  T
C237        C238   1.411       .  A
C237        C242   1.425       .  A
C238       C1855   1.413       .  A
C238        H243   1.083       .  S
C239        C240   1.421       .  A
C239       C1854   1.413   1_455  A
C239        C246   1.442       .  S
C240        C241   1.404       .  A
C241       C1858   1.398   1_455  A
C241        H244   1.084       .  S
C242       C1857   1.397       .  A
C242        C245   1.442       .  S
C245        N247   1.158       .  T
C246        N248   1.158       .  T
C249        C250   1.413       .  A
C249        C254   1.421       .  A
C250       C1059   1.407   1_545  A
C250        H255   1.081       .  S
C251        C252   1.416       .  A
C251       C1058   1.407       .  A
C251        C258   1.441       .  S
C252        C253   1.408       .  A
C253       C1062   1.406       .  A
C253        H256   1.085       .  S
C254       C1061   1.406   1_545  A
C254        C257   1.444       .  S
C257        N259   1.157       .  T
C258        N260   1.157       .  T
C261        C262   1.398       .  A
C261        C266   1.407       .  A
C262        C667   1.393       .  A
C262        H267   1.085       .  S
C263        C264   1.412       .  A
C263        C666   1.393   1_554  A
C263        C270   1.441       .  S
C264        C265   1.409       .  A
C265        C670   1.412   1_554  A
C265        H268   1.084       .  S
C266        C669   1.411       .  A
C266        C269   1.443       .  S
C269        N271   1.158       .  T
C270        N272   1.156       .  T
C273        C274   1.407       .  A
C273        C278   1.420       .  A
C274        C275   1.398       .  A
C274        H279   1.076       .  S
C275        C276   1.420       .  A
C275        C282   1.440       .  S
C276        C277   1.409       .  A
C277        C278   1.404       .  A
C277        H280   1.083       .  S
C278        C281   1.445       .  S
C281        N283   1.157       .  T
C282        N284   1.155       .  T
C285        C286   1.410       .  A
C285        C290   1.418       .  A
C286       C1903   1.403   1_455  A
C286        H291   1.084       .  S
C287        C288   1.418       .  A
C287       C1902   1.403       .  A
C287        C294   1.443       .  S
C288        C289   1.407       .  A
C289       C1906   1.411       .  A
C289        H292   1.080       .  S
C290       C1905   1.411   1_455  A
C290        C293   1.435       .  S
C293        N295   1.156       .  T
C294        N296   1.157       .  T
C297        C298   1.407       .  A
C297        C302   1.408       .  A
C298        C703   1.401       .  A
C298        H303   1.085       .  S
C299        C300   1.414       .  A
C299        C702   1.401   1_554  A
C299        C306   1.445       .  S
C300        C301   1.403       .  A
C301        C706   1.404   1_554  A
C301        H304   1.078       .  S
C302        C705   1.405       .  A
C302        C305   1.436       .  S
C305        N307   1.155       .  T
C306        N308   1.157       .  T
C309        C310   1.408       .  A
C309        C314   1.422       .  A
C310        C311   1.407       .  A
C310        H315   1.081       .  S
C311        C312   1.420       .  A
C311        C318   1.443       .  S
C312        C313   1.405       .  A
C313        C314   1.394       .  A
C313        H316   1.085       .  S
C314        C317   1.448       .  S
C317        N319   1.158       .  T
C318        N320   1.158       .  T
C321        C322   1.411       .  A
C321        C326   1.422       .  A
C322       C1131   1.412   1_545  A
C322        H327   1.084       .  S
C323        C324   1.418       .  A
C323       C1130   1.412       .  A
C323        C330   1.439       .  S
C324        C325   1.408       .  A
C325       C1134   1.403       .  A
C325        H328   1.081       .  S
C326       C1133   1.402   1_545  A
C326        C329   1.442       .  S
C329        N331   1.157       .  T
C330        N332   1.155       .  T
C333        C334   1.405       .  A
C333        C338   1.409       .  A
C334        C739   1.401       .  A
C334        H339   1.085       .  S
C335        C336   1.418       .  A
C335        C738   1.401   1_554  A
C335        C342   1.445       .  S
C336        C337   1.401       .  A
C337        C742   1.405   1_554  A
C337        H340   1.080       .  S
C338        C741   1.404       .  A
C338        C341   1.433       .  S
C341        N343   1.153       .  T
C342        N344   1.157       .  T
C345        C346   1.405       .  A
C345        C350   1.414       .  A
C346       C1963   1.402       .  A
C346        H351   1.085       .  S
C347        C348   1.415       .  A
C347       C1962   1.402   1_455  A
C347        C354   1.445       .  S
C348        C349   1.406       .  A
C349       C1966   1.411   1_455  A
C349        H352   1.085       .  S
C350       C1965   1.410       .  A
C350        C353   1.442       .  S
C353        N355   1.157       .  T
C354        N356   1.157       .  T
C357        C358   1.411       .  A
C357        C362   1.420       .  A
C358        C359   1.407       .  A
C358        H363   1.084       .  S
C359        C360   1.423       .  A
C359        C366   1.444       .  S
C360        C361   1.411       .  A
C361        C362   1.409       .  A
C361        H364   1.081       .  S
C362        C365   1.442       .  S
C365        N367   1.157       .  T
C366        N368   1.157       .  T
C369        C370   1.409       .  A
C369        C374   1.415       .  A
C370       C1179   1.401   1_545  A
C370        H375   1.084       .  S
C371        C372   1.420       .  A
C371       C1178   1.401       .  A
C371        C378   1.442       .  S
C372        C373   1.414       .  A
C373       C1182   1.402       .  A
C373        H376   1.083       .  S
C374       C1181   1.402   1_545  A
C374        C377   1.442       .  S
C377        N379   1.158       .  T
C378        N380   1.158       .  T
C381        C382   1.399       .  A
C381        C386   1.407       .  A
C382        C787   1.391   1_554  A
C382        H387   1.085       .  S
C383        C384   1.415       .  A
C383        C786   1.392       .  A
C383        C390   1.445       .  S
C384        C385   1.408       .  A
C385        C790   1.410       .  A
C385        H388   1.083       .  S
C386        C789   1.410   1_554  A
C386        C389   1.444       .  S
C389        N391   1.158       .  T
C390        N392   1.157       .  T
C393        C394   1.415       .  A
C393        C398   1.421       .  A
C394        C395   1.400       .  A
C394        H399   1.085       .  S
C395        C396   1.415       .  A
C395        C402   1.446       .  S
C396        C397   1.412       .  A
C397        C398   1.407       .  A
C397        H400   1.077       .  S
C398        C401   1.440       .  S
C401        N403   1.158       .  T
C402        N404   1.158       .  T
O405       Cr423   1.961       .  S
O405        C413   1.250       .  A
O406       Cr423   1.985       .  S
O406        C407   1.266       .  A
C407        O408   1.266       .  A
C407        C506   1.480       .  S
O408       Cr424   2.015       .  S
O409       Cr424   1.985       .  S
O409        C410   1.265       .  A
C410        O411   1.266       .  A
C410        C482   1.482       .  S
O411       Cr425   2.014       .  S
O412       Cr425   2.026       .  S
O412        C413   1.263       .  A
C413        C561   1.484       .  S
O414       Cr423   1.976       .  S
O414        C422   1.267       .  A
O415       Cr423   1.982       .  S
O415        C416   1.254       .  A
C416        O417   1.265       .  A
C416        C537   1.494       .  S
O417       Cr424   2.029       .  S
O418       Cr424   1.980       .  S
O418        C419   1.261       .  A
C419        O420   1.267       .  A
C419        C465   1.491       .  S
O420       Cr425   2.013       .  S
O421       Cr425   2.035       .  S
O421        C422   1.275       .  A
C422        C518   1.481       .  S
Cr423       O426   1.770       .  S
Cr424       O426   1.773       .  S
Cr425       O426   1.787       .  S
C427        C428   1.533       .  S
C427        C433   1.524       .  S
C427        C431   1.541       .  S
C427        C800   1.547       .  S
C428        H435   1.087       .  S
C428        C429   1.368       .  D
C429        C785   1.481       .  S
C429        C430   1.544       .  S
C430        C434   1.545       .  S
C430        C432   1.551       .  S
C430        H436   1.105       .  S
C431        H437   1.080       .  S
C431        C432   1.373       .  D
C432        C773   1.509       .  S
C433        H438   1.087       .  S
C433        C434   1.370       .  D
C434        C573   1.489       .  S
C439        C440   1.535       .  S
C439        C445   1.534       .  S
C439        C443   1.533       .  S
C439        C761   1.556       .  S
C440        H447   1.086       .  S
C440        C441   1.368       .  D
C441        C737   1.496       .  S
C441        C442   1.552       .  S
C442        C446   1.546       .  S
C442        C444   1.554       .  S
C442        H448   1.110       .  S
C443        H449   1.086       .  S
C443        C444   1.371       .  D
C444        C749   1.497       .  S
C445        H450   1.083       .  S
C445        C446   1.376       .  D
C446        C588   1.496       .  S
C451        C452   1.516       .  S
C451        C457   1.526       .  S
C451        C455   1.560       .  S
C451        C713   1.535       .  S
C452        H459   1.088       .  S
C452        C453   1.353       .  D
C453        C582   1.472       .  S
C453        C454   1.553       .  S
C454        C458   1.552       .  S
C454        C456   1.550       .  S
C454        H460   1.106       .  S
C455        H461   1.083       .  S
C455        C456   1.382       .  D
C456        C725   1.520       .  S
C457        H462   1.088       .  S
C457        C458   1.361       .  D
C458        C788   1.486       .  S
C463        C464   1.530       .  S
C463        C469   1.541       .  S
C463        C467   1.540       .  S
C463        C728   1.558       .  S
C464        H471   1.086       .  S
C464        C465   1.374       .  D
C465        C466   1.545       .  S
C466        C470   1.549       .  S
C466        C468   1.551       .  S
C466        H472   1.108       .  S
C467        H473   1.085       .  S
C467        C468   1.372       .  D
C468        C752   1.500       .  S
C469        H474   1.083       .  S
C469        C470   1.367       .  D
C470        C701   1.500       .  S
C475        C476   1.531       .  S
C475        C481   1.524       .  S
C475        C479   1.541       .  S
C475        C776   1.544       .  S
C476        H483   1.087       .  S
C476        C477   1.364       .  D
C477        C704   1.491       .  S
C477        C478   1.555       .  S
C478        C482   1.552       .  S
C478        C480   1.562       .  S
C478        H484   1.106       .  S
C479        H485   1.080       .  S
C479        C480   1.377       .  D
C480        C689   1.519       .  S
C481        H486   1.088       .  S
C481        C482   1.358       .  D
C487        C488   1.542       .  S
C487        C493   1.524       .  S
C487        C491   1.539       .  S
C487        C677   1.544       .  S
C488        H495   1.081       .  S
C488        C489   1.363       .  D
C489        C579   1.478       .  S
C489        C490   1.546       .  S
C490        C494   1.557       .  S
C490        C492   1.552       .  S
C490        H496   1.109       .  S
C491        H497   1.084       .  S
C491        C492   1.374       .  D
C492        C692   1.514       .  S
C493        H498   1.086       .  S
C493        C494   1.364       .  D
C494        C740   1.493       .  S
C499        C500   1.535       .  S
C499        C505   1.532       .  S
C499        C503   1.544       .  S
C499        C680   1.543       .  S
C500        H507   1.086       .  S
C500        C501   1.365       .  D
C501        C668   1.486       .  S
C501        C502   1.547       .  S
C502        C506   1.555       .  S
C502        C504   1.547       .  S
C502        H508   1.106       .  S
C503        H509   1.085       .  S
C503        C504   1.376       .  D
C504        C656   1.514       .  S
C505        H510   1.082       .  S
C505        C506   1.358       .  D
C511        C512   1.527       .  S
C511        C517   1.523       .  S
C511        C515   1.544       .  S
C511        C716   1.539       .  S
C512        H519   1.088       .  S
C512        C513   1.361       .  D
C513        C632   1.486       .  S
C513        C514   1.559       .  S
C514        C518   1.552       .  S
C514        C516   1.548       .  S
C514        H520   1.106       .  S
C515        H521   1.081       .  S
C515        C516   1.377       .  D
C516        C644   1.516       .  S
C517        H522   1.087       .  S
C517        C518   1.363       .  D
C523        C524   1.516       .  S
C523        C529   1.528       .  S
C523        C527   1.540       .  S
C523        C617   1.533       .  S
C524        H531   1.088       .  S
C524        C525   1.357       .  D
C525        C585   1.482       .  S
C525        C526   1.557       .  S
C526        C530   1.551       .  S
C526        C528   1.563       .  S
C526        H532   1.109       .  S
C527        H533   1.079       .  S
C527        C528   1.375       .  D
C528        C641   1.519       .  S
C529        H534   1.087       .  S
C529        C530   1.364       .  D
C530        C605   1.483       .  S
C535        C536   1.537       .  S
C535        C541   1.538       .  S
C535        C539   1.532       .  S
C535        C764   1.554       .  S
C536        H543   1.079       .  S
C536        C537   1.374       .  D
C537        C538   1.543       .  S
C538        C542   1.543       .  S
C538        C540   1.546       .  S
C538        H544   1.109       .  S
C539        H545   1.085       .  S
C539        C540   1.369       .  D
C540        C620   1.494       .  S
C541        H546   1.085       .  S
C541        C542   1.370       .  D
C542        C665   1.483       .  S
C547        C548   1.531       .  S
C547        C553   1.540       .  S
C547        C551   1.544       .  S
C547        C653   1.554       .  S
C548        H555   1.087       .  S
C548        C549   1.366       .  D
C549        C608   1.490       .  S
C549        C550   1.546       .  S
C550        C554   1.541       .  S
C550        C552   1.531       .  S
C550        H556   1.110       .  S
C551        H557   1.083       .  S
C551        C552   1.374       .  D
C552        C596   1.484       .  S
C553        H558   1.083       .  S
C553        C554   1.373       .  D
C554        C576   1.492       .  S
C559        C560   1.526       .  S
C559        C565   1.530       .  S
C559        C563   1.549       .  S
C559        C797   1.549       .  S
C560        H567   1.087       .  S
C560        C561   1.368       .  D
C561        C562   1.538       .  S
C562        C566   1.549       .  S
C562        C564   1.544       .  S
C562        H568   1.107       .  S
C563        H569   1.075       .  S
C563        C564   1.377       .  D
C564        C593   1.496       .  S
C565        H570   1.087       .  S
C565        C566   1.360       .  D
C566        C629   1.484       .  S
O571       Cr589   1.978       .  S
O571        C579   1.267       .  A
O572       Cr589   1.980       .  S
O572        C573   1.254       .  A
C573        O574   1.262       .  A
O574       Cr590   2.020       .  S
O575       Cr590   1.972       .  S
O575        C576   1.260       .  A
C576        O577   1.268       .  A
O577       Cr591   2.018       .  S
O578       Cr591   2.024       .  S
O578        C579   1.271       .  A
O580       Cr589   1.966       .  S
O580        C588   1.252       .  A
O581       Cr589   1.984       .  S
O581        C582   1.267       .  A
C582        O583   1.265       .  A
O583       Cr590   2.007       .  S
O584       Cr590   1.981       .  S
O584        C585   1.264       .  A
C585        O586   1.265       .  A
O586       Cr591   2.016       .  S
O587       Cr591   2.041       .  S
O587        C588   1.267       .  A
Cr589       O592   1.766       .  S
Cr590       O592   1.774       .  S
Cr591       O592   1.788       .  S
C593        C594   1.412       .  A
C593        C598   1.417       .  A
C594       C2211   1.402   1_455  A
C594        H599   1.085       .  S
C595       C2210   1.401       .  A
C595        C596   1.404       .  A
C595        C602   1.442       .  S
C596        C597   1.398       .  A
C597       C2214   1.396       .  A
C597        H600   1.084       .  S
C598       C2213   1.396   1_455  A
C598        C601   1.439       .  S
C601        N603   1.156       .  T
C602        N604   1.157       .  T
C605        C606   1.401       .  A
C605        C610   1.411       .  A
C606        H611   1.086       .  S
C607        C608   1.415       .  A
C607        C614   1.442       .  S
C608        C609   1.405       .  A
C609        H612   1.084       .  S
C610        C613   1.443       .  S
C613        N615   1.157       .  T
C614        N616   1.157       .  T
C617        C618   1.409       .  A
C617        C622   1.421       .  A
C618       C1427   1.400   1_545  A
C618        H623   1.082       .  S
C619       C1426   1.399       .  A
C619        C620   1.414       .  A
C619        C626   1.445       .  S
C620        C621   1.403       .  A
C621       C1430   1.399       .  A
C621        H624   1.083       .  S
C622       C1429   1.399   1_545  A
C622        C625   1.445       .  S
C625        N627   1.157       .  T
C626        N628   1.157       .  T
C629        C630   1.402       .  A
C629        C634   1.413       .  A
C630        H635   1.085       .  S
C631        C632   1.416       .  A
C631        C638   1.443       .  S
C632        C633   1.403       .  A
C633        H636   1.084       .  S
C634        C637   1.444       .  S
C637        N639   1.157       .  T
C638        N640   1.157       .  T
C641        C642   1.412       .  A
C641        C646   1.425       .  A
C642       C2259   1.413       .  A
C642        H647   1.083       .  S
C643       C2258   1.414   1_455  A
C643        C644   1.420       .  A
C643        C650   1.442       .  S
C644        C645   1.404       .  A
C645       C2262   1.397   1_455  A
C645        H648   1.084       .  S
C646       C2261   1.397       .  A
C646        C649   1.442       .  S
C649        N651   1.158       .  T
C650        N652   1.158       .  T
C653        C654   1.413       .  A
C653        C658   1.422       .  A
C654       C1463   1.407   1_545  A
C654        H659   1.082       .  S
C655       C1462   1.407       .  A
C655        C656   1.416       .  A
C655        C662   1.441       .  S
C656        C657   1.408       .  A
C657       C1466   1.405       .  A
C657        H660   1.085       .  S
C658       C1465   1.405   1_545  A
C658        C661   1.443       .  S
C661        N663   1.157       .  T
C662        N664   1.157       .  T
C665        C666   1.398       .  A
C665        C670   1.407       .  A
C666        H671   1.085       .  S
C667        C668   1.412       .  A
C667        C674   1.441       .  S
C668        C669   1.409       .  A
C669        H672   1.084       .  S
C670        C673   1.444       .  S
C673        N675   1.158       .  T
C674        N676   1.156       .  T
C677        C678   1.407       .  A
C677        C682   1.420       .  A
C678        C679   1.398       .  A
C678        H683   1.076       .  S
C679        C680   1.419       .  A
C679        C686   1.440       .  S
C680        C681   1.410       .  A
C681        C682   1.404       .  A
C681        H684   1.083       .  S
C682        C685   1.445       .  S
C685        N687   1.157       .  T
C686        N688   1.156       .  T
C689        C690   1.410       .  A
C689        C694   1.418       .  A
C690       C2307   1.404   1_455  A
C690        H695   1.085       .  S
C691       C2306   1.404       .  A
C691        C692   1.417       .  A
C691        C698   1.443       .  S
C692        C693   1.407       .  A
C693       C2310   1.411       .  A
C693        H696   1.080       .  S
C694       C2309   1.410   1_455  A
C694        C697   1.436       .  S
C697        N699   1.156       .  T
C698        N700   1.157       .  T
C701        C702   1.407       .  A
C701        C706   1.407       .  A
C702        H707   1.085       .  S
C703        C704   1.413       .  A
C703        C710   1.445       .  S
C704        C705   1.404       .  A
C705        H708   1.078       .  S
C706        C709   1.435       .  S
C709        N711   1.155       .  T
C710        N712   1.157       .  T
C713        C714   1.407       .  A
C713        C718   1.422       .  A
C714        C715   1.406       .  A
C714        H719   1.081       .  S
C715        C716   1.420       .  A
C715        C722   1.443       .  S
C716        C717   1.406       .  A
C717        C718   1.395       .  A
C717        H720   1.085       .  S
C718        C721   1.448       .  S
C721        N723   1.158       .  T
C722        N724   1.157       .  T
C725        C726   1.411       .  A
C725        C730   1.422       .  A
C726       C1535   1.413   1_545  A
C726        H731   1.084       .  S
C727       C1534   1.413       .  A
C727        C728   1.419       .  A
C727        C734   1.440       .  S
C728        C729   1.410       .  A
C729       C1538   1.403       .  A
C729        H732   1.080       .  S
C730       C1537   1.403   1_545  A
C730        C733   1.442       .  S
C733        N735   1.157       .  T
C734        N736   1.156       .  T
C737        C738   1.405       .  A
C737        C742   1.409       .  A
C738        H743   1.085       .  S
C739        C740   1.417       .  A
C739        C746   1.444       .  S
C740        C741   1.401       .  A
C741        H744   1.080       .  S
C742        C745   1.433       .  S
C745        N747   1.153       .  T
C746        N748   1.157       .  T
C749        C750   1.405       .  A
C749        C754   1.413       .  A
C750       C2367   1.402       .  A
C750        H755   1.085       .  S
C751       C2366   1.403   1_455  A
C751        C752   1.415       .  A
C751        C758   1.445       .  S
C752        C753   1.407       .  A
C753       C2370   1.411   1_455  A
C753        H756   1.085       .  S
C754       C2369   1.411       .  A
C754        C757   1.443       .  S
C757        N759   1.157       .  T
C758        N760   1.157       .  T
C761        C762   1.411       .  A
C761        C766   1.421       .  A
C762        C763   1.408       .  A
C762        H767   1.084       .  S
C763        C764   1.423       .  A
C763        C770   1.444       .  S
C764        C765   1.411       .  A
C765        C766   1.409       .  A
C765        H768   1.081       .  S
C766        C769   1.442       .  S
C769        N771   1.157       .  T
C770        N772   1.157       .  T
C773        C774   1.410       .  A
C773        C778   1.415       .  A
C774       C1583   1.402   1_545  A
C774        H779   1.084       .  S
C775       C1582   1.402       .  A
C775        C776   1.420       .  A
C775        C782   1.442       .  S
C776        C777   1.414       .  A
C777       C1586   1.401       .  A
C777        H780   1.084       .  S
C778       C1585   1.401   1_545  A
C778        C781   1.442       .  S
C781        N783   1.158       .  T
C782        N784   1.158       .  T
C785        C786   1.399       .  A
C785        C790   1.407       .  A
C786        H791   1.085       .  S
C787        C788   1.415       .  A
C787        C794   1.445       .  S
C788        C789   1.408       .  A
C789        H792   1.083       .  S
C790        C793   1.444       .  S
C793        N795   1.158       .  T
C794        N796   1.157       .  T
C797        C798   1.414       .  A
C797        C802   1.420       .  A
C798        C799   1.401       .  A
C798        H803   1.085       .  S
C799        C800   1.415       .  A
C799        C806   1.446       .  S
C800        C801   1.413       .  A
C801        C802   1.407       .  A
C801        H804   1.079       .  S
C802        C805   1.440       .  S
C805        N807   1.158       .  T
C806        N808   1.158       .  T
O809       Cr827   1.958       .  S
O809        C817   1.250       .  A
O810       Cr827   1.985       .  S
O810        C811   1.266       .  A
C811        O812   1.266       .  A
C811        C910   1.481       .  S
O812       Cr828   2.016       .  S
O813       Cr828   1.985       .  S
O813        C814   1.266       .  A
C814        O815   1.266       .  A
C814        C886   1.482       .  S
O815       Cr829   2.014       .  S
O816       Cr829   2.023       .  S
O816        C817   1.263       .  A
C817        C965   1.481       .  S
O818       Cr827   1.975       .  S
O818        C826   1.266       .  A
O819       Cr827   1.981       .  S
O819        C820   1.254       .  A
C820        O821   1.265       .  A
C820        C941   1.493       .  S
O821       Cr828   2.028       .  S
O822       Cr828   1.978       .  S
O822        C823   1.261       .  A
C823        O824   1.267       .  A
C823        C869   1.491       .  S
O824       Cr829   2.013       .  S
O825       Cr829   2.032       .  S
O825        C826   1.274       .  A
C826        C922   1.480       .  S
Cr827       O830   1.770       .  S
Cr828       O830   1.773       .  S
Cr829       O830   1.787       .  S
C831        C832   1.532       .  S
C831        C837   1.526       .  S
C831        C835   1.542       .  S
C831       C1204   1.548       .  S
C832        H839   1.087       .  S
C832        C833   1.367       .  D
C833       C1189   1.481       .  S
C833        C834   1.544       .  S
C834        C838   1.546       .  S
C834        C836   1.551       .  S
C834        H840   1.106       .  S
C835        H841   1.078       .  S
C835        C836   1.372       .  D
C836       C1177   1.508       .  S
C837        H842   1.087       .  S
C837        C838   1.371       .  D
C838        C977   1.489       .  S
C843        C844   1.535       .  S
C843        C849   1.534       .  S
C843        C847   1.533       .  S
C843       C1165   1.556       .  S
C844        H851   1.086       .  S
C844        C845   1.367       .  D
C845       C1141   1.496       .  S
C845        C846   1.552       .  S
C846        C850   1.546       .  S
C846        C848   1.555       .  S
C846        H852   1.110       .  S
C847        H853   1.086       .  S
C847        C848   1.372       .  D
C848       C1153   1.498       .  S
C849        H854   1.083       .  S
C849        C850   1.376       .  D
C850        C992   1.496       .  S
C855        C856   1.516       .  S
C855        C861   1.527       .  S
C855        C859   1.559       .  S
C855       C1117   1.534       .  S
C856        H863   1.088       .  S
C856        C857   1.352       .  D
C857        C986   1.472       .  S
C857        C858   1.553       .  S
C858        C862   1.552       .  S
C858        C860   1.550       .  S
C858        H864   1.106       .  S
C859        H865   1.083       .  S
C859        C860   1.383       .  D
C860       C1129   1.519       .  S
C861        H866   1.087       .  S
C861        C862   1.361       .  D
C862       C1192   1.487       .  S
C867        C868   1.527       .  S
C867        C873   1.540       .  S
C867        C871   1.539       .  S
C867       C1132   1.555       .  S
C868        H875   1.086       .  S
C868        C869   1.373       .  D
C869        C870   1.547       .  S
C870        C874   1.550       .  S
C870        C872   1.551       .  S
C870        H876   1.108       .  S
C871        H877   1.085       .  S
C871        C872   1.371       .  D
C872       C1156   1.498       .  S
C873        H878   1.083       .  S
C873        C874   1.368       .  D
C874       C1105   1.501       .  S
C879        C880   1.530       .  S
C879        C885   1.524       .  S
C879        C883   1.540       .  S
C879       C1180   1.543       .  S
C880        H887   1.087       .  S
C880        C881   1.364       .  D
C881       C1108   1.490       .  S
C881        C882   1.556       .  S
C882        C886   1.553       .  S
C882        C884   1.562       .  S
C882        H888   1.106       .  S
C883        H889   1.080       .  S
C883        C884   1.377       .  D
C884       C1093   1.519       .  S
C885        H890   1.088       .  S
C885        C886   1.358       .  D
C891        C892   1.542       .  S
C891        C897   1.524       .  S
C891        C895   1.538       .  S
C891       C1081   1.543       .  S
C892        H899   1.081       .  S
C892        C893   1.363       .  D
C893        C983   1.478       .  S
C893        C894   1.546       .  S
C894        C898   1.557       .  S
C894        C896   1.553       .  S
C894        H900   1.109       .  S
C895        H901   1.084       .  S
C895        C896   1.374       .  D
C896       C1096   1.514       .  S
C897        H902   1.086       .  S
C897        C898   1.364       .  D
C898       C1144   1.494       .  S
C903        C904   1.535       .  S
C903        C909   1.531       .  S
C903        C907   1.543       .  S
C903       C1084   1.543       .  S
C904        H911   1.086       .  S
C904        C905   1.365       .  D
C905       C1072   1.487       .  S
C905        C906   1.548       .  S
C906        C910   1.555       .  S
C906        C908   1.548       .  S
C906        H912   1.106       .  S
C907        H913   1.085       .  S
C907        C908   1.376       .  D
C908       C1060   1.514       .  S
C909        H914   1.082       .  S
C909        C910   1.358       .  D
C915        C916   1.528       .  S
C915        C921   1.523       .  S
C915        C919   1.543       .  S
C915       C1120   1.538       .  S
C916        H923   1.088       .  S
C916        C917   1.361       .  D
C917       C1036   1.485       .  S
C917        C918   1.556       .  S
C918        C922   1.551       .  S
C918        C920   1.548       .  S
C918        H924   1.105       .  S
C919        H925   1.081       .  S
C919        C920   1.378       .  D
C920       C1048   1.515       .  S
C921        H926   1.087       .  S
C921        C922   1.363       .  D
C927        C928   1.516       .  S
C927        C933   1.528       .  S
C927        C931   1.540       .  S
C927       C1021   1.533       .  S
C928        H935   1.088       .  S
C928        C929   1.357       .  D
C929        C989   1.482       .  S
C929        C930   1.557       .  S
C930        C934   1.551       .  S
C930        C932   1.564       .  S
C930        H936   1.109       .  S
C931        H937   1.079       .  S
C931        C932   1.375       .  D
C932       C1045   1.520       .  S
C933        H938   1.087       .  S
C933        C934   1.364       .  D
C934       C1009   1.483       .  S
C939        C940   1.537       .  S
C939        C945   1.538       .  S
C939        C943   1.533       .  S
C939       C1168   1.554       .  S
C940        H947   1.079       .  S
C940        C941   1.374       .  D
C941        C942   1.541       .  S
C942        C946   1.542       .  S
C942        C944   1.544       .  S
C942        H948   1.110       .  S
C943        H949   1.085       .  S
C943        C944   1.369       .  D
C944       C1024   1.492       .  S
C945        H950   1.085       .  S
C945        C946   1.371       .  D
C946       C1069   1.483       .  S
C951        C952   1.531       .  S
C951        C957   1.540       .  S
C951        C955   1.544       .  S
C951       C1057   1.554       .  S
C952        H959   1.087       .  S
C952        C953   1.365       .  D
C953       C1012   1.489       .  S
C953        C954   1.545       .  S
C954        C958   1.539       .  S
C954        C956   1.531       .  S
C954        H960   1.110       .  S
C955        H961   1.083       .  S
C955        C956   1.374       .  D
C956       C1000   1.484       .  S
C957        H962   1.082       .  S
C957        C958   1.373       .  D
C958        C980   1.490       .  S
C963        C964   1.528       .  S
C963        C969   1.530       .  S
C963        C967   1.549       .  S
C963       C1201   1.551       .  S
C964        H971   1.087       .  S
C964        C965   1.369       .  D
C965        C966   1.537       .  S
C966        C970   1.547       .  S
C966        C968   1.542       .  S
C966        H972   1.108       .  S
C967        H973   1.071       .  S
C967        C968   1.376       .  D
C968        C997   1.494       .  S
C969        H974   1.087       .  S
C969        C970   1.359       .  D
C970       C1033   1.483       .  S
O975       Cr993   1.979       .  S
O975        C983   1.267       .  A
O976       Cr993   1.980       .  S
O976        C977   1.254       .  A
C977        O978   1.262       .  A
O978       Cr994   2.020       .  S
O979       Cr994   1.970       .  S
O979        C980   1.260       .  A
C980        O981   1.268       .  A
O981       Cr995   2.017       .  S
O982       Cr995   2.024       .  S
O982        C983   1.271       .  A
O984       Cr993   1.966       .  S
O984        C992   1.252       .  A
O985       Cr993   1.985       .  S
O985        C986   1.268       .  A
C986        O987   1.265       .  A
O987       Cr994   2.005       .  S
O988       Cr994   1.980       .  S
O988        C989   1.264       .  A
C989        O990   1.265       .  A
O990       Cr995   2.015       .  S
O991       Cr995   2.041       .  S
O991        C992   1.267       .  A
Cr993       O996   1.766       .  S
Cr994       O996   1.775       .  S
Cr995       O996   1.789       .  S
C997        C998   1.412       .  A
C997       C1002   1.417       .  A
C998       C2615   1.402   1_455  A
C998       H1003   1.085       .  S
C999       C2614   1.402       .  A
C999       C1000   1.404       .  A
C999       C1006   1.442       .  S
C1000      C1001   1.398       .  A
C1001      C2618   1.395       .  A
C1001      H1004   1.084       .  S
C1002      C2617   1.395   1_455  A
C1002      C1005   1.439       .  S
C1005      N1007   1.156       .  T
C1006      N1008   1.157       .  T
C1009      C1010   1.400       .  A
C1009      C1014   1.411       .  A
C1010      C1415   1.399       .  A
C1010      H1015   1.086       .  S
C1011      C1414   1.399   1_554  A
C1011      C1012   1.415       .  A
C1011      C1018   1.442       .  S
C1012      C1013   1.404       .  A
C1013      C1418   1.408   1_554  A
C1013      H1016   1.084       .  S
C1014      C1417   1.409       .  A
C1014      C1017   1.443       .  S
C1017      N1019   1.157       .  T
C1018      N1020   1.157       .  T
C1021      C1022   1.410       .  A
C1021      C1026   1.421       .  A
C1022      H1027   1.082       .  S
C1023      C1024   1.414       .  A
C1023      C1030   1.445       .  S
C1024      C1025   1.402       .  A
C1025      H1028   1.083       .  S
C1026      C1029   1.445       .  S
C1029      N1031   1.157       .  T
C1030      N1032   1.157       .  T
C1033      C1034   1.402       .  A
C1033      C1038   1.412       .  A
C1034      C1439   1.405   1_554  A
C1034      H1039   1.085       .  S
C1035      C1438   1.405       .  A
C1035      C1036   1.415       .  A
C1035      C1042   1.443       .  S
C1036      C1037   1.402       .  A
C1037      C1442   1.398       .  A
C1037      H1040   1.084       .  S
C1038      C1441   1.398   1_554  A
C1038      C1041   1.444       .  S
C1041      N1043   1.157       .  T
C1042      N1044   1.157       .  T
C1045      C1046   1.412       .  A
C1045      C1050   1.425       .  A
C1046      C2663   1.413       .  A
C1046      H1051   1.083       .  S
C1047      C2662   1.413   1_455  A
C1047      C1048   1.420       .  A
C1047      C1054   1.442       .  S
C1048      C1049   1.403       .  A
C1049      C2666   1.398   1_455  A
C1049      H1052   1.084       .  S
C1050      C2665   1.398       .  A
C1050      C1053   1.442       .  S
C1053      N1055   1.158       .  T
C1054      N1056   1.158       .  T
C1057      C1058   1.413       .  A
C1057      C1062   1.421       .  A
C1058      H1063   1.081       .  S
C1059      C1060   1.416       .  A
C1059      C1066   1.441       .  S
C1060      C1061   1.408       .  A
C1061      H1064   1.085       .  S
C1062      C1065   1.444       .  S
C1065      N1067   1.157       .  T
C1066      N1068   1.157       .  T
C1069      C1070   1.398       .  A
C1069      C1074   1.407       .  A
C1070      C1475   1.393       .  A
C1070      H1075   1.085       .  S
C1071      C1474   1.394   1_554  A
C1071      C1072   1.412       .  A
C1071      C1078   1.441       .  S
C1072      C1073   1.409       .  A
C1073      C1478   1.412   1_554  A
C1073      H1076   1.084       .  S
C1074      C1477   1.411       .  A
C1074      C1077   1.443       .  S
C1077      N1079   1.158       .  T
C1078      N1080   1.156       .  T
C1081      C1082   1.407       .  A
C1081      C1086   1.420       .  A
C1082      C1083   1.399       .  A
C1082      H1087   1.076       .  S
C1083      C1084   1.420       .  A
C1083      C1090   1.440       .  S
C1084      C1085   1.409       .  A
C1085      C1086   1.404       .  A
C1085      H1088   1.083       .  S
C1086      C1089   1.445       .  S
C1089      N1091   1.157       .  T
C1090      N1092   1.155       .  T
C1093      C1094   1.410       .  A
C1093      C1098   1.418       .  A
C1094      C2711   1.404   1_455  A
C1094      H1099   1.085       .  S
C1095      C2710   1.404       .  A
C1095      C1096   1.417       .  A
C1095      C1102   1.443       .  S
C1096      C1097   1.407       .  A
C1097      C2714   1.411       .  A
C1097      H1100   1.080       .  S
C1098      C2713   1.411   1_455  A
C1098      C1101   1.436       .  S
C1101      N1103   1.156       .  T
C1102      N1104   1.157       .  T
C1105      C1106   1.407       .  A
C1105      C1110   1.408       .  A
C1106      C1511   1.401       .  A
C1106      H1111   1.085       .  S
C1107      C1510   1.401   1_554  A
C1107      C1108   1.414       .  A
C1107      C1114   1.445       .  S
C1108      C1109   1.403       .  A
C1109      C1514   1.405   1_554  A
C1109      H1112   1.078       .  S
C1110      C1513   1.405       .  A
C1110      C1113   1.436       .  S
C1113      N1115   1.155       .  T
C1114      N1116   1.157       .  T
C1117      C1118   1.408       .  A
C1117      C1122   1.422       .  A
C1118      C1119   1.407       .  A
C1118      H1123   1.081       .  S
C1119      C1120   1.420       .  A
C1119      C1126   1.444       .  S
C1120      C1121   1.405       .  A
C1121      C1122   1.394       .  A
C1121      H1124   1.085       .  S
C1122      C1125   1.448       .  S
C1125      N1127   1.158       .  T
C1126      N1128   1.158       .  T
C1129      C1130   1.411       .  A
C1129      C1134   1.422       .  A
C1130      H1135   1.084       .  S
C1131      C1132   1.419       .  A
C1131      C1138   1.440       .  S
C1132      C1133   1.408       .  A
C1133      H1136   1.081       .  S
C1134      C1137   1.441       .  S
C1137      N1139   1.157       .  T
C1138      N1140   1.156       .  T
C1141      C1142   1.406       .  A
C1141      C1146   1.409       .  A
C1142      C1547   1.402       .  A
C1142      H1147   1.085       .  S
C1143      C1546   1.401   1_554  A
C1143      C1144   1.418       .  A
C1143      C1150   1.445       .  S
C1144      C1145   1.402       .  A
C1145      C1550   1.405   1_554  A
C1145      H1148   1.080       .  S
C1146      C1549   1.404       .  A
C1146      C1149   1.433       .  S
C1149      N1151   1.153       .  T
C1150      N1152   1.157       .  T
C1153      C1154   1.405       .  A
C1153      C1158   1.414       .  A
C1154      C2771   1.402       .  A
C1154      H1159   1.085       .  S
C1155      C2770   1.402   1_455  A
C1155      C1156   1.415       .  A
C1155      C1162   1.445       .  S
C1156      C1157   1.406       .  A
C1157      C2774   1.411   1_455  A
C1157      H1160   1.085       .  S
C1158      C2773   1.411       .  A
C1158      C1161   1.443       .  S
C1161      N1163   1.157       .  T
C1162      N1164   1.157       .  T
C1165      C1166   1.411       .  A
C1165      C1170   1.420       .  A
C1166      C1167   1.408       .  A
C1166      H1171   1.084       .  S
C1167      C1168   1.423       .  A
C1167      C1174   1.444       .  S
C1168      C1169   1.411       .  A
C1169      C1170   1.409       .  A
C1169      H1172   1.081       .  S
C1170      C1173   1.442       .  S
C1173      N1175   1.157       .  T
C1174      N1176   1.158       .  T
C1177      C1178   1.410       .  A
C1177      C1182   1.415       .  A
C1178      H1183   1.084       .  S
C1179      C1180   1.420       .  A
C1179      C1186   1.442       .  S
C1180      C1181   1.414       .  A
C1181      H1184   1.083       .  S
C1182      C1185   1.442       .  S
C1185      N1187   1.158       .  T
C1186      N1188   1.158       .  T
C1189      C1190   1.399       .  A
C1189      C1194   1.407       .  A
C1190      C1595   1.392   1_554  A
C1190      H1195   1.086       .  S
C1191      C1594   1.392       .  A
C1191      C1192   1.415       .  A
C1191      C1198   1.444       .  S
C1192      C1193   1.408       .  A
C1193      C1598   1.410       .  A
C1193      H1196   1.083       .  S
C1194      C1597   1.411   1_554  A
C1194      C1197   1.444       .  S
C1197      N1199   1.158       .  T
C1198      N1200   1.157       .  T
C1201      C1202   1.415       .  A
C1201      C1206   1.422       .  A
C1202      C1203   1.400       .  A
C1202      H1207   1.085       .  S
C1203      C1204   1.415       .  A
C1203      C1210   1.446       .  S
C1204      C1205   1.412       .  A
C1205      C1206   1.407       .  A
C1205      H1208   1.076       .  S
C1206      C1209   1.440       .  S
C1209      N1211   1.158       .  T
C1210      N1212   1.158       .  T
O1213     Cr1231   1.962       .  S
O1213      C1221   1.251       .  A
O1214     Cr1231   1.984       .  S
O1214      C1215   1.266       .  A
C1215      O1216   1.266       .  A
C1215      C1314   1.480       .  S
O1216     Cr1232   2.015       .  S
O1217     Cr1232   1.985       .  S
O1217      C1218   1.266       .  A
C1218      O1219   1.266       .  A
C1218      C1290   1.481       .  S
O1219     Cr1233   2.012       .  S
O1220     Cr1233   2.027       .  S
O1220      C1221   1.263       .  A
C1221      C1369   1.484       .  S
O1222     Cr1231   1.974       .  S
O1222      C1230   1.266       .  A
O1223     Cr1231   1.983       .  S
O1223      C1224   1.254       .  A
C1224      O1225   1.265       .  A
C1224      C1345   1.495       .  S
O1225     Cr1232   2.029       .  S
O1226     Cr1232   1.978       .  S
O1226      C1227   1.261       .  A
C1227      O1228   1.267       .  A
C1227      C1273   1.490       .  S
O1228     Cr1233   2.013       .  S
O1229     Cr1233   2.033       .  S
O1229      C1230   1.274       .  A
C1230      C1326   1.480       .  S
Cr1231     O1234   1.770       .  S
Cr1232     O1234   1.773       .  S
Cr1233     O1234   1.787       .  S
C1235      C1236   1.533       .  S
C1235      C1241   1.524       .  S
C1235      C1239   1.541       .  S
C1235      C1608   1.547       .  S
C1236      H1243   1.087       .  S
C1236      C1237   1.368       .  D
C1237      C1593   1.481       .  S
C1237      C1238   1.544       .  S
C1238      C1242   1.546       .  S
C1238      C1240   1.552       .  S
C1238      H1244   1.105       .  S
C1239      H1245   1.080       .  S
C1239      C1240   1.373       .  D
C1240      C1581   1.509       .  S
C1241      H1246   1.087       .  S
C1241      C1242   1.370       .  D
C1242      C1381   1.489       .  S
C1247      C1248   1.535       .  S
C1247      C1253   1.534       .  S
C1247      C1251   1.533       .  S
C1247      C1569   1.557       .  S
C1248      H1255   1.086       .  S
C1248      C1249   1.368       .  D
C1249      C1545   1.497       .  S
C1249      C1250   1.553       .  S
C1250      C1254   1.546       .  S
C1250      C1252   1.554       .  S
C1250      H1256   1.110       .  S
C1251      H1257   1.086       .  S
C1251      C1252   1.371       .  D
C1252      C1557   1.497       .  S
C1253      H1258   1.083       .  S
C1253      C1254   1.376       .  D
C1254      C1396   1.496       .  S
C1259      C1260   1.515       .  S
C1259      C1265   1.526       .  S
C1259      C1263   1.559       .  S
C1259      C1521   1.533       .  S
C1260      H1267   1.088       .  S
C1260      C1261   1.353       .  D
C1261      C1390   1.472       .  S
C1261      C1262   1.554       .  S
C1262      C1266   1.553       .  S
C1262      C1264   1.551       .  S
C1262      H1268   1.106       .  S
C1263      H1269   1.083       .  S
C1263      C1264   1.382       .  D
C1264      C1533   1.520       .  S
C1265      H1270   1.088       .  S
C1265      C1266   1.361       .  D
C1266      C1596   1.487       .  S
C1271      C1272   1.529       .  S
C1271      C1277   1.541       .  S
C1271      C1275   1.540       .  S
C1271      C1536   1.557       .  S
C1272      H1279   1.086       .  S
C1272      C1273   1.373       .  D
C1273      C1274   1.545       .  S
C1274      C1278   1.549       .  S
C1274      C1276   1.551       .  S
C1274      H1280   1.108       .  S
C1275      H1281   1.085       .  S
C1275      C1276   1.371       .  D
C1276      C1560   1.499       .  S
C1277      H1282   1.083       .  S
C1277      C1278   1.368       .  D
C1278      C1509   1.500       .  S
C1283      C1284   1.531       .  S
C1283      C1289   1.524       .  S
C1283      C1287   1.541       .  S
C1283      C1584   1.544       .  S
C1284      H1291   1.087       .  S
C1284      C1285   1.364       .  D
C1285      C1512   1.490       .  S
C1285      C1286   1.555       .  S
C1286      C1290   1.552       .  S
C1286      C1288   1.562       .  S
C1286      H1292   1.105       .  S
C1287      H1293   1.080       .  S
C1287      C1288   1.377       .  D
C1288      C1497   1.519       .  S
C1289      H1294   1.088       .  S
C1289      C1290   1.358       .  D
C1295      C1296   1.542       .  S
C1295      C1301   1.525       .  S
C1295      C1299   1.539       .  S
C1295      C1485   1.544       .  S
C1296      H1303   1.081       .  S
C1296      C1297   1.363       .  D
C1297      C1387   1.477       .  S
C1297      C1298   1.545       .  S
C1298      C1302   1.557       .  S
C1298      C1300   1.552       .  S
C1298      H1304   1.109       .  S
C1299      H1305   1.084       .  S
C1299      C1300   1.374       .  D
C1300      C1500   1.513       .  S
C1301      H1306   1.086       .  S
C1301      C1302   1.364       .  D
C1302      C1548   1.493       .  S
C1307      C1308   1.535       .  S
C1307      C1313   1.531       .  S
C1307      C1311   1.544       .  S
C1307      C1488   1.544       .  S
C1308      H1315   1.086       .  S
C1308      C1309   1.365       .  D
C1309      C1476   1.486       .  S
C1309      C1310   1.546       .  S
C1310      C1314   1.555       .  S
C1310      C1312   1.548       .  S
C1310      H1316   1.106       .  S
C1311      H1317   1.085       .  S
C1311      C1312   1.377       .  D
C1312      C1464   1.515       .  S
C1313      H1318   1.082       .  S
C1313      C1314   1.358       .  D
C1319      C1320   1.527       .  S
C1319      C1325   1.522       .  S
C1319      C1323   1.543       .  S
C1319      C1524   1.536       .  S
C1320      H1327   1.088       .  S
C1320      C1321   1.362       .  D
C1321      C1440   1.486       .  S
C1321      C1322   1.559       .  S
C1322      C1326   1.552       .  S
C1322      C1324   1.547       .  S
C1322      H1328   1.106       .  S
C1323      H1329   1.081       .  S
C1323      C1324   1.377       .  D
C1324      C1452   1.514       .  S
C1325      H1330   1.087       .  S
C1325      C1326   1.362       .  D
C1331      C1332   1.516       .  S
C1331      C1337   1.527       .  S
C1331      C1335   1.540       .  S
C1331      C1425   1.533       .  S
C1332      H1339   1.088       .  S
C1332      C1333   1.357       .  D
C1333      C1393   1.482       .  S
C1333      C1334   1.558       .  S
C1334      C1338   1.552       .  S
C1334      C1336   1.564       .  S
C1334      H1340   1.109       .  S
C1335      H1341   1.079       .  S
C1335      C1336   1.375       .  D
C1336      C1449   1.520       .  S
C1337      H1342   1.087       .  S
C1337      C1338   1.364       .  D
C1338      C1413   1.482       .  S
C1343      C1344   1.537       .  S
C1343      C1349   1.538       .  S
C1343      C1347   1.532       .  S
C1343      C1572   1.554       .  S
C1344      H1351   1.079       .  S
C1344      C1345   1.374       .  D
C1345      C1346   1.543       .  S
C1346      C1350   1.543       .  S
C1346      C1348   1.546       .  S
C1346      H1352   1.109       .  S
C1347      H1353   1.085       .  S
C1347      C1348   1.369       .  D
C1348      C1428   1.494       .  S
C1349      H1354   1.085       .  S
C1349      C1350   1.370       .  D
C1350      C1473   1.484       .  S
C1355      C1356   1.530       .  S
C1355      C1361   1.540       .  S
C1355      C1359   1.544       .  S
C1355      C1461   1.554       .  S
C1356      H1363   1.087       .  S
C1356      C1357   1.366       .  D
C1357      C1416   1.490       .  S
C1357      C1358   1.547       .  S
C1358      C1362   1.541       .  S
C1358      C1360   1.533       .  S
C1358      H1364   1.110       .  S
C1359      H1365   1.083       .  S
C1359      C1360   1.374       .  D
C1360      C1404   1.486       .  S
C1361      H1366   1.082       .  S
C1361      C1362   1.373       .  D
C1362      C1384   1.492       .  S
C1367      C1368   1.526       .  S
C1367      C1373   1.530       .  S
C1367      C1371   1.549       .  S
C1367      C1605   1.549       .  S
C1368      H1375   1.087       .  S
C1368      C1369   1.369       .  D
C1369      C1370   1.539       .  S
C1370      C1374   1.549       .  S
C1370      C1372   1.543       .  S
C1370      H1376   1.107       .  S
C1371      H1377   1.075       .  S
C1371      C1372   1.377       .  D
C1372      C1401   1.496       .  S
C1373      H1378   1.087       .  S
C1373      C1374   1.360       .  D
C1374      C1437   1.484       .  S
O1379     Cr1397   1.978       .  S
O1379      C1387   1.267       .  A
O1380     Cr1397   1.980       .  S
O1380      C1381   1.254       .  A
C1381      O1382   1.262       .  A
O1382     Cr1398   2.020       .  S
O1383     Cr1398   1.973       .  S
O1383      C1384   1.261       .  A
C1384      O1385   1.268       .  A
O1385     Cr1399   2.017       .  S
O1386     Cr1399   2.024       .  S
O1386      C1387   1.272       .  A
O1388     Cr1397   1.966       .  S
O1388      C1396   1.252       .  A
O1389     Cr1397   1.984       .  S
O1389      C1390   1.267       .  A
C1390      O1391   1.265       .  A
O1391     Cr1398   2.008       .  S
O1392     Cr1398   1.980       .  S
O1392      C1393   1.264       .  A
C1393      O1394   1.265       .  A
O1394     Cr1399   2.016       .  S
O1395     Cr1399   2.041       .  S
O1395      C1396   1.267       .  A
Cr1397     O1400   1.766       .  S
Cr1398     O1400   1.774       .  S
Cr1399     O1400   1.788       .  S
C1401      C1402   1.412       .  A
C1401      C1406   1.417       .  A
C1402      C3019   1.402   1_455  A
C1402      H1407   1.085       .  S
C1403      C3018   1.402       .  A
C1403      C1404   1.405       .  A
C1403      C1410   1.442       .  S
C1404      C1405   1.399       .  A
C1405      C3022   1.396       .  A
C1405      H1408   1.084       .  S
C1406      C3021   1.396   1_455  A
C1406      C1409   1.439       .  S
C1409      N1411   1.156       .  T
C1410      N1412   1.157       .  T
C1413      C1414   1.401       .  A
C1413      C1418   1.411       .  A
C1414      H1419   1.086       .  S
C1415      C1416   1.415       .  A
C1415      C1422   1.442       .  S
C1416      C1417   1.405       .  A
C1417      H1420   1.084       .  S
C1418      C1421   1.443       .  S
C1421      N1423   1.157       .  T
C1422      N1424   1.157       .  T
C1425      C1426   1.409       .  A
C1425      C1430   1.421       .  A
C1426      H1431   1.082       .  S
C1427      C1428   1.415       .  A
C1427      C1434   1.445       .  S
C1428      C1429   1.403       .  A
C1429      H1432   1.083       .  S
C1430      C1433   1.445       .  S
C1433      N1435   1.157       .  T
C1434      N1436   1.157       .  T
C1437      C1438   1.402       .  A
C1437      C1442   1.413       .  A
C1438      H1443   1.085       .  S
C1439      C1440   1.416       .  A
C1439      C1446   1.442       .  S
C1440      C1441   1.403       .  A
C1441      H1444   1.084       .  S
C1442      C1445   1.444       .  S
C1445      N1447   1.157       .  T
C1446      N1448   1.157       .  T
C1449      C1450   1.412       .  A
C1449      C1454   1.425       .  A
C1450      C3067   1.414       .  A
C1450      H1455   1.083       .  S
C1451      C3066   1.413   1_455  A
C1451      C1452   1.420       .  A
C1451      C1458   1.442       .  S
C1452      C1453   1.403       .  A
C1453      C3070   1.397   1_455  A
C1453      H1456   1.084       .  S
C1454      C3069   1.398       .  A
C1454      C1457   1.441       .  S
C1457      N1459   1.158       .  T
C1458      N1460   1.158       .  T
C1461      C1462   1.413       .  A
C1461      C1466   1.422       .  A
C1462      H1467   1.082       .  S
C1463      C1464   1.417       .  A
C1463      C1470   1.441       .  S
C1464      C1465   1.408       .  A
C1465      H1468   1.085       .  S
C1466      C1469   1.444       .  S
C1469      N1471   1.157       .  T
C1470      N1472   1.157       .  T
C1473      C1474   1.399       .  A
C1473      C1478   1.407       .  A
C1474      H1479   1.085       .  S
C1475      C1476   1.412       .  A
C1475      C1482   1.441       .  S
C1476      C1477   1.409       .  A
C1477      H1480   1.084       .  S
C1478      C1481   1.444       .  S
C1481      N1483   1.158       .  T
C1482      N1484   1.156       .  T
C1485      C1486   1.407       .  A
C1485      C1490   1.420       .  A
C1486      C1487   1.399       .  A
C1486      H1491   1.076       .  S
C1487      C1488   1.419       .  A
C1487      C1494   1.440       .  S
C1488      C1489   1.409       .  A
C1489      C1490   1.404       .  A
C1489      H1492   1.083       .  S
C1490      C1493   1.445       .  S
C1493      N1495   1.157       .  T
C1494      N1496   1.156       .  T
C1497      C1498   1.410       .  A
C1497      C1502   1.418       .  A
C1498      C3115   1.404   1_455  A
C1498      H1503   1.085       .  S
C1499      C3114   1.403       .  A
C1499      C1500   1.417       .  A
C1499      C1506   1.443       .  S
C1500      C1501   1.407       .  A
C1501      C3118   1.410       .  A
C1501      H1504   1.080       .  S
C1502      C3117   1.410   1_455  A
C1502      C1505   1.436       .  S
C1505      N1507   1.156       .  T
C1506      N1508   1.157       .  T
C1509      C1510   1.407       .  A
C1509      C1514   1.408       .  A
C1510      H1515   1.085       .  S
C1511      C1512   1.413       .  A
C1511      C1518   1.445       .  S
C1512      C1513   1.404       .  A
C1513      H1516   1.078       .  S
C1514      C1517   1.436       .  S
C1517      N1519   1.155       .  T
C1518      N1520   1.157       .  T
C1521      C1522   1.407       .  A
C1521      C1526   1.422       .  A
C1522      C1523   1.405       .  A
C1522      H1527   1.080       .  S
C1523      C1524   1.420       .  A
C1523      C1530   1.443       .  S
C1524      C1525   1.405       .  A
C1525      C1526   1.394       .  A
C1525      H1528   1.085       .  S
C1526      C1529   1.447       .  S
C1529      N1531   1.158       .  T
C1530      N1532   1.157       .  T
C1533      C1534   1.411       .  A
C1533      C1538   1.421       .  A
C1534      H1539   1.084       .  S
C1535      C1536   1.419       .  A
C1535      C1542   1.440       .  S
C1536      C1537   1.409       .  A
C1537      H1540   1.080       .  S
C1538      C1541   1.442       .  S
C1541      N1543   1.157       .  T
C1542      N1544   1.156       .  T
C1545      C1546   1.405       .  A
C1545      C1550   1.409       .  A
C1546      H1551   1.085       .  S
C1547      C1548   1.417       .  A
C1547      C1554   1.444       .  S
C1548      C1549   1.401       .  A
C1549      H1552   1.079       .  S
C1550      C1553   1.433       .  S
C1553      N1555   1.153       .  T
C1554      N1556   1.157       .  T
C1557      C1558   1.405       .  A
C1557      C1562   1.413       .  A
C1558      C3175   1.402       .  A
C1558      H1563   1.085       .  S
C1559      C3174   1.402   1_455  A
C1559      C1560   1.415       .  A
C1559      C1566   1.445       .  S
C1560      C1561   1.407       .  A
C1561      C3178   1.411   1_455  A
C1561      H1564   1.085       .  S
C1562      C3177   1.411       .  A
C1562      C1565   1.443       .  S
C1565      N1567   1.157       .  T
C1566      N1568   1.157       .  T
C1569      C1570   1.411       .  A
C1569      C1574   1.421       .  A
C1570      C1571   1.408       .  A
C1570      H1575   1.084       .  S
C1571      C1572   1.423       .  A
C1571      C1578   1.444       .  S
C1572      C1573   1.411       .  A
C1573      C1574   1.409       .  A
C1573      H1576   1.081       .  S
C1574      C1577   1.442       .  S
C1577      N1579   1.157       .  T
C1578      N1580   1.158       .  T
C1581      C1582   1.410       .  A
C1581      C1586   1.415       .  A
C1582      H1587   1.084       .  S
C1583      C1584   1.420       .  A
C1583      C1590   1.442       .  S
C1584      C1585   1.414       .  A
C1585      H1588   1.084       .  S
C1586      C1589   1.442       .  S
C1589      N1591   1.158       .  T
C1590      N1592   1.158       .  T
C1593      C1594   1.399       .  A
C1593      C1598   1.407       .  A
C1594      H1599   1.085       .  S
C1595      C1596   1.415       .  A
C1595      C1602   1.445       .  S
C1596      C1597   1.408       .  A
C1597      H1600   1.083       .  S
C1598      C1601   1.444       .  S
C1601      N1603   1.158       .  T
C1602      N1604   1.157       .  T
C1605      C1606   1.414       .  A
C1605      C1610   1.420       .  A
C1606      C1607   1.401       .  A
C1606      H1611   1.085       .  S
C1607      C1608   1.415       .  A
C1607      C1614   1.446       .  S
C1608      C1609   1.412       .  A
C1609      C1610   1.407       .  A
C1609      H1612   1.079       .  S
C1610      C1613   1.440       .  S
C1613      N1615   1.158       .  T
C1614      N1616   1.158       .  T
O1617     Cr1635   1.958       .  S
O1617      C1625   1.250       .  A
O1618     Cr1635   1.985       .  S
O1618      C1619   1.266       .  A
C1619      O1620   1.266       .  A
C1619      C1718   1.480       .  S
O1620     Cr1636   2.015       .  S
O1621     Cr1636   1.984       .  S
O1621      C1622   1.265       .  A
C1622      O1623   1.266       .  A
C1622      C1694   1.481       .  S
O1623     Cr1637   2.013       .  S
O1624     Cr1637   2.024       .  S
O1624      C1625   1.263       .  A
C1625      C1773   1.481       .  S
O1626     Cr1635   1.975       .  S
O1626      C1634   1.267       .  A
O1627     Cr1635   1.981       .  S
O1627      C1628   1.253       .  A
C1628      O1629   1.265       .  A
C1628      C1749   1.493       .  S
O1629     Cr1636   2.028       .  S
O1630     Cr1636   1.978       .  S
O1630      C1631   1.261       .  A
C1631      O1632   1.267       .  A
C1631      C1677   1.490       .  S
O1632     Cr1637   2.012       .  S
O1633     Cr1637   2.033       .  S
O1633      C1634   1.274       .  A
C1634      C1730   1.480       .  S
Cr1635     O1638   1.770       .  S
Cr1636     O1638   1.772       .  S
Cr1637     O1638   1.787       .  S
C1639      C1640   1.532       .  S
C1639      C1645   1.525       .  S
C1639      C1643   1.542       .  S
C1639      C2012   1.548       .  S
C1640      H1647   1.087       .  S
C1640      C1641   1.367       .  D
C1641      C1997   1.480       .  S
C1641      C1642   1.544       .  S
C1642      C1646   1.546       .  S
C1642      C1644   1.550       .  S
C1642      H1648   1.106       .  S
C1643      H1649   1.078       .  S
C1643      C1644   1.372       .  D
C1644      C1985   1.508       .  S
C1645      H1650   1.087       .  S
C1645      C1646   1.370       .  D
C1646      C1785   1.489       .  S
C1651      C1652   1.535       .  S
C1651      C1657   1.534       .  S
C1651      C1655   1.533       .  S
C1651      C1973   1.556       .  S
C1652      H1659   1.086       .  S
C1652      C1653   1.367       .  D
C1653      C1949   1.496       .  S
C1653      C1654   1.552       .  S
C1654      C1658   1.546       .  S
C1654      C1656   1.554       .  S
C1654      H1660   1.110       .  S
C1655      H1661   1.086       .  S
C1655      C1656   1.372       .  D
C1656      C1961   1.498       .  S
C1657      H1662   1.083       .  S
C1657      C1658   1.376       .  D
C1658      C1800   1.496       .  S
C1663      C1664   1.515       .  S
C1663      C1669   1.527       .  S
C1663      C1667   1.559       .  S
C1663      C1925   1.533       .  S
C1664      H1671   1.088       .  S
C1664      C1665   1.352       .  D
C1665      C1794   1.473       .  S
C1665      C1666   1.554       .  S
C1666      C1670   1.553       .  S
C1666      C1668   1.551       .  S
C1666      H1672   1.106       .  S
C1667      H1673   1.083       .  S
C1667      C1668   1.382       .  D
C1668      C1937   1.519       .  S
C1669      H1674   1.088       .  S
C1669      C1670   1.361       .  D
C1670      C2000   1.488       .  S
C1675      C1676   1.527       .  S
C1675      C1681   1.541       .  S
C1675      C1679   1.539       .  S
C1675      C1940   1.555       .  S
C1676      H1683   1.086       .  S
C1676      C1677   1.373       .  D
C1677      C1678   1.546       .  S
C1678      C1682   1.550       .  S
C1678      C1680   1.551       .  S
C1678      H1684   1.108       .  S
C1679      H1685   1.085       .  S
C1679      C1680   1.371       .  D
C1680      C1964   1.498       .  S
C1681      H1686   1.083       .  S
C1681      C1682   1.368       .  D
C1682      C1913   1.501       .  S
C1687      C1688   1.530       .  S
C1687      C1693   1.523       .  S
C1687      C1691   1.540       .  S
C1687      C1988   1.543       .  S
C1688      H1695   1.087       .  S
C1688      C1689   1.364       .  D
C1689      C1916   1.490       .  S
C1689      C1690   1.556       .  S
C1690      C1694   1.553       .  S
C1690      C1692   1.562       .  S
C1690      H1696   1.106       .  S
C1691      H1697   1.081       .  S
C1691      C1692   1.376       .  D
C1692      C1901   1.519       .  S
C1693      H1698   1.088       .  S
C1693      C1694   1.358       .  D
C1699      C1700   1.542       .  S
C1699      C1705   1.524       .  S
C1699      C1703   1.538       .  S
C1699      C1889   1.543       .  S
C1700      H1707   1.081       .  S
C1700      C1701   1.363       .  D
C1701      C1791   1.479       .  S
C1701      C1702   1.546       .  S
C1702      C1706   1.558       .  S
C1702      C1704   1.553       .  S
C1702      H1708   1.109       .  S
C1703      H1709   1.084       .  S
C1703      C1704   1.374       .  D
C1704      C1904   1.514       .  S
C1705      H1710   1.086       .  S
C1705      C1706   1.363       .  D
C1706      C1952   1.495       .  S
C1711      C1712   1.535       .  S
C1711      C1717   1.531       .  S
C1711      C1715   1.543       .  S
C1711      C1892   1.543       .  S
C1712      H1719   1.086       .  S
C1712      C1713   1.365       .  D
C1713      C1880   1.487       .  S
C1713      C1714   1.548       .  S
C1714      C1718   1.555       .  S
C1714      C1716   1.549       .  S
C1714      H1720   1.106       .  S
C1715      H1721   1.085       .  S
C1715      C1716   1.376       .  D
C1716      C1868   1.515       .  S
C1717      H1722   1.082       .  S
C1717      C1718   1.358       .  D
C1723      C1724   1.528       .  S
C1723      C1729   1.522       .  S
C1723      C1727   1.543       .  S
C1723      C1928   1.537       .  S
C1724      H1731   1.088       .  S
C1724      C1725   1.361       .  D
C1725      C1844   1.486       .  S
C1725      C1726   1.557       .  S
C1726      C1730   1.552       .  S
C1726      C1728   1.548       .  S
C1726      H1732   1.105       .  S
C1727      H1733   1.081       .  S
C1727      C1728   1.377       .  D
C1728      C1856   1.515       .  S
C1729      H1734   1.087       .  S
C1729      C1730   1.363       .  D
C1735      C1736   1.516       .  S
C1735      C1741   1.528       .  S
C1735      C1739   1.540       .  S
C1735      C1829   1.533       .  S
C1736      H1743   1.088       .  S
C1736      C1737   1.357       .  D
C1737      C1797   1.482       .  S
C1737      C1738   1.557       .  S
C1738      C1742   1.552       .  S
C1738      C1740   1.564       .  S
C1738      H1744   1.109       .  S
C1739      H1745   1.079       .  S
C1739      C1740   1.375       .  D
C1740      C1853   1.520       .  S
C1741      H1746   1.087       .  S
C1741      C1742   1.364       .  D
C1742      C1817   1.483       .  S
C1747      C1748   1.537       .  S
C1747      C1753   1.538       .  S
C1747      C1751   1.532       .  S
C1747      C1976   1.554       .  S
C1748      H1755   1.079       .  S
C1748      C1749   1.374       .  D
C1749      C1750   1.542       .  S
C1750      C1754   1.542       .  S
C1750      C1752   1.544       .  S
C1750      H1756   1.110       .  S
C1751      H1757   1.085       .  S
C1751      C1752   1.369       .  D
C1752      C1832   1.492       .  S
C1753      H1758   1.085       .  S
C1753      C1754   1.371       .  D
C1754      C1877   1.483       .  S
C1759      C1760   1.531       .  S
C1759      C1765   1.540       .  S
C1759      C1763   1.544       .  S
C1759      C1865   1.554       .  S
C1760      H1767   1.087       .  S
C1760      C1761   1.365       .  D
C1761      C1820   1.489       .  S
C1761      C1762   1.545       .  S
C1762      C1766   1.539       .  S
C1762      C1764   1.532       .  S
C1762      H1768   1.110       .  S
C1763      H1769   1.084       .  S
C1763      C1764   1.374       .  D
C1764      C1808   1.484       .  S
C1765      H1770   1.082       .  S
C1765      C1766   1.373       .  D
C1766      C1788   1.490       .  S
C1771      C1772   1.528       .  S
C1771      C1777   1.530       .  S
C1771      C1775   1.550       .  S
C1771      C2009   1.551       .  S
C1772      H1779   1.087       .  S
C1772      C1773   1.369       .  D
C1773      C1774   1.537       .  S
C1774      C1778   1.547       .  S
C1774      C1776   1.542       .  S
C1774      H1780   1.108       .  S
C1775      H1781   1.071       .  S
C1775      C1776   1.376       .  D
C1776      C1805   1.494       .  S
C1777      H1782   1.087       .  S
C1777      C1778   1.359       .  D
C1778      C1841   1.483       .  S
O1783     Cr1801   1.979       .  S
O1783      C1791   1.267       .  A
O1784     Cr1801   1.980       .  S
O1784      C1785   1.254       .  A
C1785      O1786   1.262       .  A
O1786     Cr1802   2.020       .  S
O1787     Cr1802   1.971       .  S
O1787      C1788   1.260       .  A
C1788      O1789   1.268       .  A
O1789     Cr1803   2.017       .  S
O1790     Cr1803   2.025       .  S
O1790      C1791   1.271       .  A
O1792     Cr1801   1.966       .  S
O1792      C1800   1.252       .  A
O1793     Cr1801   1.986       .  S
O1793      C1794   1.268       .  A
C1794      O1795   1.265       .  A
O1795     Cr1802   2.006       .  S
O1796     Cr1802   1.980       .  S
O1796      C1797   1.264       .  A
C1797      O1798   1.265       .  A
O1798     Cr1803   2.016       .  S
O1799     Cr1803   2.041       .  S
O1799      C1800   1.267       .  A
Cr1801     O1804   1.766       .  S
Cr1802     O1804   1.775       .  S
Cr1803     O1804   1.788       .  S
C1805      C1806   1.412       .  A
C1805      C1810   1.417       .  A
C1806      H1811   1.085       .  S
C1807      C1808   1.404       .  A
C1807      C1814   1.442       .  S
C1808      C1809   1.398       .  A
C1809      H1812   1.084       .  S
C1810      C1813   1.439       .  S
C1813      N1815   1.157       .  T
C1814      N1816   1.157       .  T
C1817      C1818   1.401       .  A
C1817      C1822   1.411       .  A
C1818      C2223   1.399       .  A
C1818      H1823   1.086       .  S
C1819      C2222   1.399   1_554  A
C1819      C1820   1.415       .  A
C1819      C1826   1.442       .  S
C1820      C1821   1.405       .  A
C1821      C2226   1.408   1_554  A
C1821      H1824   1.084       .  S
C1822      C2225   1.409       .  A
C1822      C1825   1.443       .  S
C1825      N1827   1.157       .  T
C1826      N1828   1.157       .  T
C1829      C1830   1.409       .  A
C1829      C1834   1.421       .  A
C1830      C2639   1.400   1_545  A
C1830      H1835   1.082       .  S
C1831      C2638   1.400       .  A
C1831      C1832   1.414       .  A
C1831      C1838   1.445       .  S
C1832      C1833   1.402       .  A
C1833      C2642   1.398       .  A
C1833      H1836   1.083       .  S
C1834      C2641   1.399   1_545  A
C1834      C1837   1.445       .  S
C1837      N1839   1.157       .  T
C1838      N1840   1.157       .  T
C1841      C1842   1.401       .  A
C1841      C1846   1.412       .  A
C1842      C2247   1.405   1_554  A
C1842      H1847   1.085       .  S
C1843      C2246   1.405       .  A
C1843      C1844   1.415       .  A
C1843      C1850   1.442       .  S
C1844      C1845   1.403       .  A
C1845      C2250   1.399       .  A
C1845      H1848   1.084       .  S
C1846      C2249   1.398   1_554  A
C1846      C1849   1.444       .  S
C1849      N1851   1.157       .  T
C1850      N1852   1.157       .  T
C1853      C1854   1.411       .  A
C1853      C1858   1.425       .  A
C1854      H1859   1.083       .  S
C1855      C1856   1.420       .  A
C1855      C1862   1.442       .  S
C1856      C1857   1.404       .  A
C1857      H1860   1.084       .  S
C1858      C1861   1.442       .  S
C1861      N1863   1.158       .  T
C1862      N1864   1.158       .  T
C1865      C1866   1.413       .  A
C1865      C1870   1.421       .  A
C1866      C2675   1.407   1_545  A
C1866      H1871   1.082       .  S
C1867      C2674   1.407       .  A
C1867      C1868   1.416       .  A
C1867      C1874   1.441       .  S
C1868      C1869   1.409       .  A
C1869      C2678   1.406       .  A
C1869      H1872   1.085       .  S
C1870      C2677   1.405   1_545  A
C1870      C1873   1.444       .  S
C1873      N1875   1.157       .  T
C1874      N1876   1.157       .  T
C1877      C1878   1.398       .  A
C1877      C1882   1.407       .  A
C1878      C2283   1.393       .  A
C1878      H1883   1.085       .  S
C1879      C2282   1.394   1_554  A
C1879      C1880   1.412       .  A
C1879      C1886   1.441       .  S
C1880      C1881   1.409       .  A
C1881      C2286   1.412   1_554  A
C1881      H1884   1.084       .  S
C1882      C2285   1.412       .  A
C1882      C1885   1.443       .  S
C1885      N1887   1.158       .  T
C1886      N1888   1.156       .  T
C1889      C1890   1.407       .  A
C1889      C1894   1.420       .  A
C1890      C1891   1.398       .  A
C1890      H1895   1.076       .  S
C1891      C1892   1.420       .  A
C1891      C1898   1.440       .  S
C1892      C1893   1.409       .  A
C1893      C1894   1.404       .  A
C1893      H1896   1.083       .  S
C1894      C1897   1.445       .  S
C1897      N1899   1.157       .  T
C1898      N1900   1.156       .  T
C1901      C1902   1.410       .  A
C1901      C1906   1.418       .  A
C1902      H1907   1.084       .  S
C1903      C1904   1.418       .  A
C1903      C1910   1.443       .  S
C1904      C1905   1.407       .  A
C1905      H1908   1.080       .  S
C1906      C1909   1.436       .  S
C1909      N1911   1.156       .  T
C1910      N1912   1.157       .  T
C1913      C1914   1.407       .  A
C1913      C1918   1.409       .  A
C1914      C2319   1.401       .  A
C1914      H1919   1.085       .  S
C1915      C2318   1.401   1_554  A
C1915      C1916   1.414       .  A
C1915      C1922   1.445       .  S
C1916      C1917   1.404       .  A
C1917      C2322   1.405   1_554  A
C1917      H1920   1.078       .  S
C1918      C2321   1.405       .  A
C1918      C1921   1.436       .  S
C1921      N1923   1.156       .  T
C1922      N1924   1.157       .  T
C1925      C1926   1.408       .  A
C1925      C1930   1.422       .  A
C1926      C1927   1.407       .  A
C1926      H1931   1.081       .  S
C1927      C1928   1.420       .  A
C1927      C1934   1.444       .  S
C1928      C1929   1.405       .  A
C1929      C1930   1.393       .  A
C1929      H1932   1.085       .  S
C1930      C1933   1.448       .  S
C1933      N1935   1.158       .  T
C1934      N1936   1.158       .  T
C1937      C1938   1.411       .  A
C1937      C1942   1.422       .  A
C1938      C2747   1.412   1_545  A
C1938      H1943   1.084       .  S
C1939      C2746   1.412       .  A
C1939      C1940   1.419       .  A
C1939      C1946   1.440       .  S
C1940      C1941   1.408       .  A
C1941      C2750   1.402       .  A
C1941      H1944   1.081       .  S
C1942      C2749   1.403   1_545  A
C1942      C1945   1.441       .  S
C1945      N1947   1.157       .  T
C1946      N1948   1.155       .  T
C1949      C1950   1.405       .  A
C1949      C1954   1.409       .  A
C1950      C2355   1.401       .  A
C1950      H1955   1.085       .  S
C1951      C2354   1.401   1_554  A
C1951      C1952   1.418       .  A
C1951      C1958   1.445       .  S
C1952      C1953   1.402       .  A
C1953      C2358   1.405   1_554  A
C1953      H1956   1.080       .  S
C1954      C2357   1.404       .  A
C1954      C1957   1.432       .  S
C1957      N1959   1.153       .  T
C1958      N1960   1.157       .  T
C1961      C1962   1.405       .  A
C1961      C1966   1.414       .  A
C1962      H1967   1.085       .  S
C1963      C1964   1.415       .  A
C1963      C1970   1.445       .  S
C1964      C1965   1.406       .  A
C1965      H1968   1.085       .  S
C1966      C1969   1.442       .  S
C1969      N1971   1.157       .  T
C1970      N1972   1.157       .  T
C1973      C1974   1.411       .  A
C1973      C1978   1.420       .  A
C1974      C1975   1.408       .  A
C1974      H1979   1.084       .  S
C1975      C1976   1.423       .  A
C1975      C1982   1.444       .  S
C1976      C1977   1.411       .  A
C1977      C1978   1.410       .  A
C1977      H1980   1.081       .  S
C1978      C1981   1.442       .  S
C1981      N1983   1.157       .  T
C1982      N1984   1.157       .  T
C1985      C1986   1.409       .  A
C1985      C1990   1.415       .  A
C1986      C2795   1.401   1_545  A
C1986      H1991   1.084       .  S
C1987      C2794   1.401       .  A
C1987      C1988   1.420       .  A
C1987      C1994   1.442       .  S
C1988      C1989   1.414       .  A
C1989      C2798   1.402       .  A
C1989      H1992   1.083       .  S
C1990      C2797   1.402   1_545  A
C1990      C1993   1.442       .  S
C1993      N1995   1.158       .  T
C1994      N1996   1.158       .  T
C1997      C1998   1.399       .  A
C1997      C2002   1.407       .  A
C1998      C2403   1.392   1_554  A
C1998      H2003   1.086       .  S
C1999      C2402   1.393       .  A
C1999      C2000   1.415       .  A
C1999      C2006   1.444       .  S
C2000      C2001   1.408       .  A
C2001      C2406   1.411       .  A
C2001      H2004   1.083       .  S
C2002      C2405   1.410   1_554  A
C2002      C2005   1.444       .  S
C2005      N2007   1.158       .  T
C2006      N2008   1.157       .  T
C2009      C2010   1.415       .  A
C2009      C2014   1.422       .  A
C2010      C2011   1.401       .  A
C2010      H2015   1.085       .  S
C2011      C2012   1.415       .  A
C2011      C2018   1.446       .  S
C2012      C2013   1.412       .  A
C2013      C2014   1.407       .  A
C2013      H2016   1.076       .  S
C2014      C2017   1.440       .  S
C2017      N2019   1.158       .  T
C2018      N2020   1.158       .  T
O2021     Cr2039   1.961       .  S
O2021      C2029   1.251       .  A
O2022     Cr2039   1.984       .  S
O2022      C2023   1.265       .  A
C2023      O2024   1.266       .  A
C2023      C2122   1.480       .  S
O2024     Cr2040   2.015       .  S
O2025     Cr2040   1.984       .  S
O2025      C2026   1.265       .  A
C2026      O2027   1.266       .  A
C2026      C2098   1.481       .  S
O2027     Cr2041   2.013       .  S
O2028     Cr2041   2.026       .  S
O2028      C2029   1.263       .  A
C2029      C2177   1.484       .  S
O2030     Cr2039   1.975       .  S
O2030      C2038   1.266       .  A
O2031     Cr2039   1.984       .  S
O2031      C2032   1.255       .  A
C2032      O2033   1.265       .  A
C2032      C2153   1.495       .  S
O2033     Cr2040   2.029       .  S
O2034     Cr2040   1.979       .  S
O2034      C2035   1.261       .  A
C2035      O2036   1.267       .  A
C2035      C2081   1.490       .  S
O2036     Cr2041   2.012       .  S
O2037     Cr2041   2.035       .  S
O2037      C2038   1.275       .  A
C2038      C2134   1.481       .  S
Cr2039     O2042   1.769       .  S
Cr2040     O2042   1.773       .  S
Cr2041     O2042   1.787       .  S
C2043      C2044   1.533       .  S
C2043      C2049   1.524       .  S
C2043      C2047   1.541       .  S
C2043      C2416   1.547       .  S
C2044      H2051   1.087       .  S
C2044      C2045   1.367       .  D
C2045      C2401   1.482       .  S
C2045      C2046   1.544       .  S
C2046      C2050   1.546       .  S
C2046      C2048   1.552       .  S
C2046      H2052   1.105       .  S
C2047      H2053   1.080       .  S
C2047      C2048   1.373       .  D
C2048      C2389   1.508       .  S
C2049      H2054   1.087       .  S
C2049      C2050   1.370       .  D
C2050      C2189   1.490       .  S
C2055      C2056   1.535       .  S
C2055      C2061   1.534       .  S
C2055      C2059   1.533       .  S
C2055      C2377   1.557       .  S
C2056      H2063   1.086       .  S
C2056      C2057   1.368       .  D
C2057      C2353   1.497       .  S
C2057      C2058   1.553       .  S
C2058      C2062   1.547       .  S
C2058      C2060   1.555       .  S
C2058      H2064   1.110       .  S
C2059      H2065   1.086       .  S
C2059      C2060   1.371       .  D
C2060      C2365   1.498       .  S
C2061      H2066   1.083       .  S
C2061      C2062   1.376       .  D
C2062      C2204   1.497       .  S
C2067      C2068   1.515       .  S
C2067      C2073   1.527       .  S
C2067      C2071   1.559       .  S
C2067      C2329   1.534       .  S
C2068      H2075   1.088       .  S
C2068      C2069   1.353       .  D
C2069      C2198   1.472       .  S
C2069      C2070   1.554       .  S
C2070      C2074   1.553       .  S
C2070      C2072   1.551       .  S
C2070      H2076   1.106       .  S
C2071      H2077   1.083       .  S
C2071      C2072   1.382       .  D
C2072      C2341   1.520       .  S
C2073      H2078   1.088       .  S
C2073      C2074   1.361       .  D
C2074      C2404   1.487       .  S
C2079      C2080   1.529       .  S
C2079      C2085   1.541       .  S
C2079      C2083   1.540       .  S
C2079      C2344   1.557       .  S
C2080      H2087   1.086       .  S
C2080      C2081   1.373       .  D
C2081      C2082   1.545       .  S
C2082      C2086   1.548       .  S
C2082      C2084   1.551       .  S
C2082      H2088   1.108       .  S
C2083      H2089   1.085       .  S
C2083      C2084   1.372       .  D
C2084      C2368   1.499       .  S
C2085      H2090   1.083       .  S
C2085      C2086   1.368       .  D
C2086      C2317   1.500       .  S
C2091      C2092   1.530       .  S
C2091      C2097   1.524       .  S
C2091      C2095   1.541       .  S
C2091      C2392   1.543       .  S
C2092      H2099   1.087       .  S
C2092      C2093   1.364       .  D
C2093      C2320   1.490       .  S
C2093      C2094   1.555       .  S
C2094      C2098   1.552       .  S
C2094      C2096   1.562       .  S
C2094      H2100   1.105       .  S
C2095      H2101   1.080       .  S
C2095      C2096   1.377       .  D
C2096      C2305   1.520       .  S
C2097      H2102   1.088       .  S
C2097      C2098   1.358       .  D
C2103      C2104   1.542       .  S
C2103      C2109   1.524       .  S
C2103      C2107   1.539       .  S
C2103      C2293   1.543       .  S
C2104      H2111   1.081       .  S
C2104      C2105   1.363       .  D
C2105      C2195   1.477       .  S
C2105      C2106   1.545       .  S
C2106      C2110   1.557       .  S
C2106      C2108   1.552       .  S
C2106      H2112   1.109       .  S
C2107      H2113   1.085       .  S
C2107      C2108   1.374       .  D
C2108      C2308   1.513       .  S
C2109      H2114   1.086       .  S
C2109      C2110   1.363       .  D
C2110      C2356   1.494       .  S
C2115      C2116   1.535       .  S
C2115      C2121   1.531       .  S
C2115      C2119   1.544       .  S
C2115      C2296   1.543       .  S
C2116      H2123   1.086       .  S
C2116      C2117   1.365       .  D
C2117      C2284   1.487       .  S
C2117      C2118   1.547       .  S
C2118      C2122   1.555       .  S
C2118      C2120   1.547       .  S
C2118      H2124   1.106       .  S
C2119      H2125   1.085       .  S
C2119      C2120   1.376       .  D
C2120      C2272   1.514       .  S
C2121      H2126   1.082       .  S
C2121      C2122   1.358       .  D
C2127      C2128   1.527       .  S
C2127      C2133   1.523       .  S
C2127      C2131   1.543       .  S
C2127      C2332   1.537       .  S
C2128      H2135   1.088       .  S
C2128      C2129   1.361       .  D
C2129      C2248   1.486       .  S
C2129      C2130   1.558       .  S
C2130      C2134   1.552       .  S
C2130      C2132   1.547       .  S
C2130      H2136   1.106       .  S
C2131      H2137   1.081       .  S
C2131      C2132   1.377       .  D
C2132      C2260   1.514       .  S
C2133      H2138   1.087       .  S
C2133      C2134   1.363       .  D
C2139      C2140   1.516       .  S
C2139      C2145   1.527       .  S
C2139      C2143   1.540       .  S
C2139      C2233   1.533       .  S
C2140      H2147   1.088       .  S
C2140      C2141   1.356       .  D
C2141      C2201   1.483       .  S
C2141      C2142   1.558       .  S
C2142      C2146   1.551       .  S
C2142      C2144   1.564       .  S
C2142      H2148   1.109       .  S
C2143      H2149   1.079       .  S
C2143      C2144   1.375       .  D
C2144      C2257   1.521       .  S
C2145      H2150   1.087       .  S
C2145      C2146   1.364       .  D
C2146      C2221   1.483       .  S
C2151      C2152   1.537       .  S
C2151      C2157   1.538       .  S
C2151      C2155   1.532       .  S
C2151      C2380   1.554       .  S
C2152      H2159   1.079       .  S
C2152      C2153   1.374       .  D
C2153      C2154   1.543       .  S
C2154      C2158   1.543       .  S
C2154      C2156   1.546       .  S
C2154      H2160   1.109       .  S
C2155      H2161   1.085       .  S
C2155      C2156   1.369       .  D
C2156      C2236   1.495       .  S
C2157      H2162   1.085       .  S
C2157      C2158   1.370       .  D
C2158      C2281   1.484       .  S
C2163      C2164   1.531       .  S
C2163      C2169   1.540       .  S
C2163      C2167   1.543       .  S
C2163      C2269   1.554       .  S
C2164      H2171   1.087       .  S
C2164      C2165   1.366       .  D
C2165      C2224   1.490       .  S
C2165      C2166   1.546       .  S
C2166      C2170   1.540       .  S
C2166      C2168   1.533       .  S
C2166      H2172   1.110       .  S
C2167      H2173   1.083       .  S
C2167      C2168   1.374       .  D
C2168      C2212   1.487       .  S
C2169      H2174   1.082       .  S
C2169      C2170   1.373       .  D
C2170      C2192   1.491       .  S
C2175      C2176   1.525       .  S
C2175      C2181   1.531       .  S
C2175      C2179   1.549       .  S
C2175      C2413   1.549       .  S
C2176      H2183   1.087       .  S
C2176      C2177   1.368       .  D
C2177      C2178   1.539       .  S
C2178      C2182   1.549       .  S
C2178      C2180   1.543       .  S
C2178      H2184   1.108       .  S
C2179      H2185   1.075       .  S
C2179      C2180   1.377       .  D
C2180      C2209   1.495       .  S
C2181      H2186   1.087       .  S
C2181      C2182   1.360       .  D
C2182      C2245   1.484       .  S
O2187     Cr2205   1.978       .  S
O2187      C2195   1.267       .  A
O2188     Cr2205   1.980       .  S
O2188      C2189   1.254       .  A
C2189      O2190   1.262       .  A
O2190     Cr2206   2.021       .  S
O2191     Cr2206   1.971       .  S
O2191      C2192   1.260       .  A
C2192      O2193   1.268       .  A
O2193     Cr2207   2.017       .  S
O2194     Cr2207   2.024       .  S
O2194      C2195   1.272       .  A
O2196     Cr2205   1.967       .  S
O2196      C2204   1.252       .  A
O2197     Cr2205   1.984       .  S
O2197      C2198   1.268       .  A
C2198      O2199   1.265       .  A
O2199     Cr2206   2.007       .  S
O2200     Cr2206   1.981       .  S
O2200      C2201   1.265       .  A
C2201      O2202   1.265       .  A
O2202     Cr2207   2.015       .  S
O2203     Cr2207   2.041       .  S
O2203      C2204   1.267       .  A
Cr2205     O2208   1.766       .  S
Cr2206     O2208   1.775       .  S
Cr2207     O2208   1.789       .  S
C2209      C2210   1.412       .  A
C2209      C2214   1.418       .  A
C2210      H2215   1.085       .  S
C2211      C2212   1.406       .  A
C2211      C2218   1.442       .  S
C2212      C2213   1.399       .  A
C2213      H2216   1.084       .  S
C2214      C2217   1.439       .  S
C2217      N2219   1.157       .  T
C2218      N2220   1.157       .  T
C2221      C2222   1.401       .  A
C2221      C2226   1.411       .  A
C2222      H2227   1.086       .  S
C2223      C2224   1.415       .  A
C2223      C2230   1.442       .  S
C2224      C2225   1.405       .  A
C2225      H2228   1.084       .  S
C2226      C2229   1.443       .  S
C2229      N2231   1.157       .  T
C2230      N2232   1.157       .  T
C2233      C2234   1.409       .  A
C2233      C2238   1.421       .  A
C2234      C3043   1.400   1_545  A
C2234      H2239   1.082       .  S
C2235      C3042   1.400       .  A
C2235      C2236   1.415       .  A
C2235      C2242   1.445       .  S
C2236      C2237   1.403       .  A
C2237      C3046   1.399       .  A
C2237      H2240   1.083       .  S
C2238      C3045   1.399   1_545  A
C2238      C2241   1.445       .  S
C2241      N2243   1.157       .  T
C2242      N2244   1.157       .  T
C2245      C2246   1.402       .  A
C2245      C2250   1.413       .  A
C2246      H2251   1.085       .  S
C2247      C2248   1.416       .  A
C2247      C2254   1.442       .  S
C2248      C2249   1.403       .  A
C2249      H2252   1.084       .  S
C2250      C2253   1.445       .  S
C2253      N2255   1.157       .  T
C2254      N2256   1.157       .  T
C2257      C2258   1.412       .  A
C2257      C2262   1.425       .  A
C2258      H2263   1.083       .  S
C2259      C2260   1.420       .  A
C2259      C2266   1.442       .  S
C2260      C2261   1.403       .  A
C2261      H2264   1.084       .  S
C2262      C2265   1.441       .  S
C2265      N2267   1.158       .  T
C2266      N2268   1.158       .  T
C2269      C2270   1.413       .  A
C2269      C2274   1.422       .  A
C2270      C3079   1.407   1_545  A
C2270      H2275   1.082       .  S
C2271      C3078   1.407       .  A
C2271      C2272   1.416       .  A
C2271      C2278   1.441       .  S
C2272      C2273   1.408       .  A
C2273      C3082   1.405       .  A
C2273      H2276   1.085       .  S
C2274      C3081   1.405   1_545  A
C2274      C2277   1.444       .  S
C2277      N2279   1.157       .  T
C2278      N2280   1.157       .  T
C2281      C2282   1.399       .  A
C2281      C2286   1.407       .  A
C2282      H2287   1.085       .  S
C2283      C2284   1.412       .  A
C2283      C2290   1.441       .  S
C2284      C2285   1.409       .  A
C2285      H2288   1.084       .  S
C2286      C2289   1.444       .  S
C2289      N2291   1.158       .  T
C2290      N2292   1.156       .  T
C2293      C2294   1.407       .  A
C2293      C2298   1.420       .  A
C2294      C2295   1.398       .  A
C2294      H2299   1.076       .  S
C2295      C2296   1.420       .  A
C2295      C2302   1.440       .  S
C2296      C2297   1.409       .  A
C2297      C2298   1.404       .  A
C2297      H2300   1.083       .  S
C2298      C2301   1.445       .  S
C2301      N2303   1.157       .  T
C2302      N2304   1.156       .  T
C2305      C2306   1.410       .  A
C2305      C2310   1.418       .  A
C2306      H2311   1.085       .  S
C2307      C2308   1.417       .  A
C2307      C2314   1.443       .  S
C2308      C2309   1.406       .  A
C2309      H2312   1.080       .  S
C2310      C2313   1.436       .  S
C2313      N2315   1.156       .  T
C2314      N2316   1.157       .  T
C2317      C2318   1.407       .  A
C2317      C2322   1.408       .  A
C2318      H2323   1.085       .  S
C2319      C2320   1.413       .  A
C2319      C2326   1.445       .  S
C2320      C2321   1.404       .  A
C2321      H2324   1.078       .  S
C2322      C2325   1.436       .  S
C2325      N2327   1.155       .  T
C2326      N2328   1.157       .  T
C2329      C2330   1.408       .  A
C2329      C2334   1.422       .  A
C2330      C2331   1.406       .  A
C2330      H2335   1.080       .  S
C2331      C2332   1.420       .  A
C2331      C2338   1.443       .  S
C2332      C2333   1.405       .  A
C2333      C2334   1.394       .  A
C2333      H2336   1.085       .  S
C2334      C2337   1.447       .  S
C2337      N2339   1.158       .  T
C2338      N2340   1.157       .  T
C2341      C2342   1.411       .  A
C2341      C2346   1.422       .  A
C2342      C3151   1.412   1_545  A
C2342      H2347   1.084       .  S
C2343      C3150   1.413       .  A
C2343      C2344   1.419       .  A
C2343      C2350   1.440       .  S
C2344      C2345   1.410       .  A
C2345      C3154   1.403       .  A
C2345      H2348   1.080       .  S
C2346      C3153   1.404   1_545  A
C2346      C2349   1.442       .  S
C2349      N2351   1.157       .  T
C2350      N2352   1.156       .  T
C2353      C2354   1.405       .  A
C2353      C2358   1.409       .  A
C2354      H2359   1.085       .  S
C2355      C2356   1.417       .  A
C2355      C2362   1.444       .  S
C2356      C2357   1.401       .  A
C2357      H2360   1.079       .  S
C2358      C2361   1.432       .  S
C2361      N2363   1.153       .  T
C2362      N2364   1.157       .  T
C2365      C2366   1.405       .  A
C2365      C2370   1.413       .  A
C2366      H2371   1.085       .  S
C2367      C2368   1.415       .  A
C2367      C2374   1.445       .  S
C2368      C2369   1.407       .  A
C2369      H2372   1.085       .  S
C2370      C2373   1.442       .  S
C2373      N2375   1.157       .  T
C2374      N2376   1.157       .  T
C2377      C2378   1.411       .  A
C2377      C2382   1.421       .  A
C2378      C2379   1.408       .  A
C2378      H2383   1.084       .  S
C2379      C2380   1.423       .  A
C2379      C2386   1.444       .  S
C2380      C2381   1.410       .  A
C2381      C2382   1.409       .  A
C2381      H2384   1.081       .  S
C2382      C2385   1.441       .  S
C2385      N2387   1.156       .  T
C2386      N2388   1.158       .  T
C2389      C2390   1.410       .  A
C2389      C2394   1.416       .  A
C2390      C3199   1.402   1_545  A
C2390      H2395   1.084       .  S
C2391      C3198   1.401       .  A
C2391      C2392   1.420       .  A
C2391      C2398   1.442       .  S
C2392      C2393   1.414       .  A
C2393      C3202   1.402       .  A
C2393      H2396   1.084       .  S
C2394      C3201   1.401   1_545  A
C2394      C2397   1.442       .  S
C2397      N2399   1.158       .  T
C2398      N2400   1.158       .  T
C2401      C2402   1.399       .  A
C2401      C2406   1.408       .  A
C2402      H2407   1.086       .  S
C2403      C2404   1.415       .  A
C2403      C2410   1.445       .  S
C2404      C2405   1.408       .  A
C2405      H2408   1.083       .  S
C2406      C2409   1.444       .  S
C2409      N2411   1.158       .  T
C2410      N2412   1.157       .  T
C2413      C2414   1.414       .  A
C2413      C2418   1.421       .  A
C2414      C2415   1.400       .  A
C2414      H2419   1.085       .  S
C2415      C2416   1.415       .  A
C2415      C2422   1.446       .  S
C2416      C2417   1.413       .  A
C2417      C2418   1.408       .  A
C2417      H2420   1.079       .  S
C2418      C2421   1.440       .  S
C2421      N2423   1.158       .  T
C2422      N2424   1.158       .  T
O2425     Cr2443   1.959       .  S
O2425      C2433   1.250       .  A
O2426     Cr2443   1.985       .  S
O2426      C2427   1.266       .  A
C2427      O2428   1.266       .  A
C2427      C2526   1.481       .  S
O2428     Cr2444   2.015       .  S
O2429     Cr2444   1.984       .  S
O2429      C2430   1.265       .  A
C2430      O2431   1.266       .  A
C2430      C2502   1.481       .  S
O2431     Cr2445   2.014       .  S
O2432     Cr2445   2.024       .  S
O2432      C2433   1.263       .  A
C2433      C2581   1.482       .  S
O2434     Cr2443   1.976       .  S
O2434      C2442   1.267       .  A
O2435     Cr2443   1.982       .  S
O2435      C2436   1.254       .  A
C2436      O2437   1.265       .  A
C2436      C2557   1.493       .  S
O2437     Cr2444   2.027       .  S
O2438     Cr2444   1.978       .  S
O2438      C2439   1.261       .  A
C2439      O2440   1.267       .  A
C2439      C2485   1.490       .  S
O2440     Cr2445   2.012       .  S
O2441     Cr2445   2.033       .  S
O2441      C2442   1.274       .  A
C2442      C2538   1.481       .  S
Cr2443     O2446   1.770       .  S
Cr2444     O2446   1.773       .  S
Cr2445     O2446   1.787       .  S
C2447      C2448   1.532       .  S
C2447      C2453   1.525       .  S
C2447      C2451   1.541       .  S
C2447      C2820   1.547       .  S
C2448      H2455   1.087       .  S
C2448      C2449   1.367       .  D
C2449      C2805   1.480       .  S
C2449      C2450   1.544       .  S
C2450      C2454   1.546       .  S
C2450      C2452   1.550       .  S
C2450      H2456   1.106       .  S
C2451      H2457   1.079       .  S
C2451      C2452   1.372       .  D
C2452      C2793   1.508       .  S
C2453      H2458   1.087       .  S
C2453      C2454   1.370       .  D
C2454      C2593   1.489       .  S
C2459      C2460   1.535       .  S
C2459      C2465   1.534       .  S
C2459      C2463   1.533       .  S
C2459      C2781   1.556       .  S
C2460      H2467   1.086       .  S
C2460      C2461   1.368       .  D
C2461      C2757   1.496       .  S
C2461      C2462   1.552       .  S
C2462      C2466   1.546       .  S
C2462      C2464   1.554       .  S
C2462      H2468   1.110       .  S
C2463      H2469   1.086       .  S
C2463      C2464   1.372       .  D
C2464      C2769   1.497       .  S
C2465      H2470   1.083       .  S
C2465      C2466   1.376       .  D
C2466      C2608   1.496       .  S
C2471      C2472   1.516       .  S
C2471      C2477   1.527       .  S
C2471      C2475   1.559       .  S
C2471      C2733   1.534       .  S
C2472      H2479   1.088       .  S
C2472      C2473   1.353       .  D
C2473      C2602   1.473       .  S
C2473      C2474   1.553       .  S
C2474      C2478   1.552       .  S
C2474      C2476   1.551       .  S
C2474      H2480   1.106       .  S
C2475      H2481   1.083       .  S
C2475      C2476   1.383       .  D
C2476      C2745   1.519       .  S
C2477      H2482   1.088       .  S
C2477      C2478   1.361       .  D
C2478      C2808   1.487       .  S
C2483      C2484   1.528       .  S
C2483      C2489   1.540       .  S
C2483      C2487   1.540       .  S
C2483      C2748   1.556       .  S
C2484      H2491   1.086       .  S
C2484      C2485   1.373       .  D
C2485      C2486   1.546       .  S
C2486      C2490   1.550       .  S
C2486      C2488   1.551       .  S
C2486      H2492   1.108       .  S
C2487      H2493   1.085       .  S
C2487      C2488   1.371       .  D
C2488      C2772   1.499       .  S
C2489      H2494   1.083       .  S
C2489      C2490   1.368       .  D
C2490      C2721   1.501       .  S
C2495      C2496   1.530       .  S
C2495      C2501   1.524       .  S
C2495      C2499   1.540       .  S
C2495      C2796   1.543       .  S
C2496      H2503   1.087       .  S
C2496      C2497   1.364       .  D
C2497      C2724   1.490       .  S
C2497      C2498   1.556       .  S
C2498      C2502   1.553       .  S
C2498      C2500   1.562       .  S
C2498      H2504   1.106       .  S
C2499      H2505   1.081       .  S
C2499      C2500   1.376       .  D
C2500      C2709   1.519       .  S
C2501      H2506   1.088       .  S
C2501      C2502   1.358       .  D
C2507      C2508   1.542       .  S
C2507      C2513   1.524       .  S
C2507      C2511   1.539       .  S
C2507      C2697   1.543       .  S
C2508      H2515   1.081       .  S
C2508      C2509   1.363       .  D
C2509      C2599   1.478       .  S
C2509      C2510   1.546       .  S
C2510      C2514   1.558       .  S
C2510      C2512   1.553       .  S
C2510      H2516   1.109       .  S
C2511      H2517   1.084       .  S
C2511      C2512   1.374       .  D
C2512      C2712   1.514       .  S
C2513      H2518   1.086       .  S
C2513      C2514   1.363       .  D
C2514      C2760   1.494       .  S
C2519      C2520   1.535       .  S
C2519      C2525   1.532       .  S
C2519      C2523   1.544       .  S
C2519      C2700   1.543       .  S
C2520      H2527   1.086       .  S
C2520      C2521   1.365       .  D
C2521      C2688   1.487       .  S
C2521      C2522   1.548       .  S
C2522      C2526   1.555       .  S
C2522      C2524   1.548       .  S
C2522      H2528   1.106       .  S
C2523      H2529   1.085       .  S
C2523      C2524   1.376       .  D
C2524      C2676   1.514       .  S
C2525      H2530   1.082       .  S
C2525      C2526   1.358       .  D
C2531      C2532   1.528       .  S
C2531      C2537   1.523       .  S
C2531      C2535   1.543       .  S
C2531      C2736   1.537       .  S
C2532      H2539   1.088       .  S
C2532      C2533   1.360       .  D
C2533      C2652   1.486       .  S
C2533      C2534   1.557       .  S
C2534      C2538   1.552       .  S
C2534      C2536   1.548       .  S
C2534      H2540   1.105       .  S
C2535      H2541   1.081       .  S
C2535      C2536   1.378       .  D
C2536      C2664   1.516       .  S
C2537      H2542   1.087       .  S
C2537      C2538   1.363       .  D
C2543      C2544   1.516       .  S
C2543      C2549   1.528       .  S
C2543      C2547   1.540       .  S
C2543      C2637   1.532       .  S
C2544      H2551   1.088       .  S
C2544      C2545   1.356       .  D
C2545      C2605   1.482       .  S
C2545      C2546   1.557       .  S
C2546      C2550   1.551       .  S
C2546      C2548   1.564       .  S
C2546      H2552   1.109       .  S
C2547      H2553   1.079       .  S
C2547      C2548   1.375       .  D
C2548      C2661   1.520       .  S
C2549      H2554   1.087       .  S
C2549      C2550   1.364       .  D
C2550      C2625   1.483       .  S
C2555      C2556   1.537       .  S
C2555      C2561   1.538       .  S
C2555      C2559   1.532       .  S
C2555      C2784   1.554       .  S
C2556      H2563   1.079       .  S
C2556      C2557   1.374       .  D
C2557      C2558   1.542       .  S
C2558      C2562   1.542       .  S
C2558      C2560   1.545       .  S
C2558      H2564   1.110       .  S
C2559      H2565   1.085       .  S
C2559      C2560   1.369       .  D
C2560      C2640   1.494       .  S
C2561      H2566   1.085       .  S
C2561      C2562   1.371       .  D
C2562      C2685   1.483       .  S
C2567      C2568   1.531       .  S
C2567      C2573   1.540       .  S
C2567      C2571   1.544       .  S
C2567      C2673   1.554       .  S
C2568      H2575   1.087       .  S
C2568      C2569   1.365       .  D
C2569      C2628   1.489       .  S
C2569      C2570   1.545       .  S
C2570      C2574   1.539       .  S
C2570      C2572   1.531       .  S
C2570      H2576   1.110       .  S
C2571      H2577   1.084       .  S
C2571      C2572   1.374       .  D
C2572      C2616   1.483       .  S
C2573      H2578   1.082       .  S
C2573      C2574   1.372       .  D
C2574      C2596   1.490       .  S
C2579      C2580   1.527       .  S
C2579      C2585   1.530       .  S
C2579      C2583   1.549       .  S
C2579      C2817   1.550       .  S
C2580      H2587   1.087       .  S
C2580      C2581   1.369       .  D
C2581      C2582   1.537       .  S
C2582      C2586   1.548       .  S
C2582      C2584   1.543       .  S
C2582      H2588   1.108       .  S
C2583      H2589   1.072       .  S
C2583      C2584   1.376       .  D
C2584      C2613   1.494       .  S
C2585      H2590   1.087       .  S
C2585      C2586   1.359       .  D
C2586      C2649   1.484       .  S
O2591     Cr2609   1.979       .  S
O2591      C2599   1.267       .  A
O2592     Cr2609   1.980       .  S
O2592      C2593   1.254       .  A
C2593      O2594   1.262       .  A
O2594     Cr2610   2.020       .  S
O2595     Cr2610   1.970       .  S
O2595      C2596   1.260       .  A
C2596      O2597   1.268       .  A
O2597     Cr2611   2.016       .  S
O2598     Cr2611   2.024       .  S
O2598      C2599   1.271       .  A
O2600     Cr2609   1.966       .  S
O2600      C2608   1.252       .  A
O2601     Cr2609   1.985       .  S
O2601      C2602   1.268       .  A
C2602      O2603   1.265       .  A
O2603     Cr2610   2.007       .  S
O2604     Cr2610   1.980       .  S
O2604      C2605   1.264       .  A
C2605      O2606   1.265       .  A
O2606     Cr2611   2.015       .  S
O2607     Cr2611   2.040       .  S
O2607      C2608   1.267       .  A
Cr2609     O2612   1.766       .  S
Cr2610     O2612   1.775       .  S
Cr2611     O2612   1.789       .  S
C2613      C2614   1.412       .  A
C2613      C2618   1.416       .  A
C2614      H2619   1.085       .  S
C2615      C2616   1.404       .  A
C2615      C2622   1.442       .  S
C2616      C2617   1.398       .  A
C2617      H2620   1.084       .  S
C2618      C2621   1.439       .  S
C2621      N2623   1.156       .  T
C2622      N2624   1.157       .  T
C2625      C2626   1.400       .  A
C2625      C2630   1.411       .  A
C2626      C3031   1.400       .  A
C2626      H2631   1.086       .  S
C2627      C3030   1.399   1_554  A
C2627      C2628   1.415       .  A
C2627      C2634   1.442       .  S
C2628      C2629   1.405       .  A
C2629      C3034   1.408   1_554  A
C2629      H2632   1.084       .  S
C2630      C3033   1.409       .  A
C2630      C2633   1.443       .  S
C2633      N2635   1.157       .  T
C2634      N2636   1.157       .  T
C2637      C2638   1.410       .  A
C2637      C2642   1.421       .  A
C2638      H2643   1.082       .  S
C2639      C2640   1.414       .  A
C2639      C2646   1.445       .  S
C2640      C2641   1.403       .  A
C2641      H2644   1.083       .  S
C2642      C2645   1.445       .  S
C2645      N2647   1.157       .  T
C2646      N2648   1.157       .  T
C2649      C2650   1.402       .  A
C2649      C2654   1.412       .  A
C2650      C3055   1.405   1_554  A
C2650      H2655   1.085       .  S
C2651      C3054   1.405       .  A
C2651      C2652   1.416       .  A
C2651      C2658   1.443       .  S
C2652      C2653   1.402       .  A
C2653      C3058   1.399       .  A
C2653      H2656   1.084       .  S
C2654      C3057   1.399   1_554  A
C2654      C2657   1.444       .  S
C2657      N2659   1.157       .  T
C2658      N2660   1.157       .  T
C2661      C2662   1.412       .  A
C2661      C2666   1.425       .  A
C2662      H2667   1.083       .  S
C2663      C2664   1.421       .  A
C2663      C2670   1.442       .  S
C2664      C2665   1.404       .  A
C2665      H2668   1.084       .  S
C2666      C2669   1.442       .  S
C2669      N2671   1.158       .  T
C2670      N2672   1.158       .  T
C2673      C2674   1.413       .  A
C2673      C2678   1.421       .  A
C2674      H2679   1.081       .  S
C2675      C2676   1.416       .  A
C2675      C2682   1.441       .  S
C2676      C2677   1.408       .  A
C2677      H2680   1.085       .  S
C2678      C2681   1.444       .  S
C2681      N2683   1.157       .  T
C2682      N2684   1.157       .  T
C2685      C2686   1.398       .  A
C2685      C2690   1.407       .  A
C2686      C3091   1.393       .  A
C2686      H2691   1.085       .  S
C2687      C3090   1.393   1_554  A
C2687      C2688   1.412       .  A
C2687      C2694   1.441       .  S
C2688      C2689   1.409       .  A
C2689      C3094   1.412   1_554  A
C2689      H2692   1.084       .  S
C2690      C3093   1.411       .  A
C2690      C2693   1.443       .  S
C2693      N2695   1.158       .  T
C2694      N2696   1.156       .  T
C2697      C2698   1.407       .  A
C2697      C2702   1.420       .  A
C2698      C2699   1.399       .  A
C2698      H2703   1.076       .  S
C2699      C2700   1.420       .  A
C2699      C2706   1.440       .  S
C2700      C2701   1.409       .  A
C2701      C2702   1.404       .  A
C2701      H2704   1.083       .  S
C2702      C2705   1.445       .  S
C2705      N2707   1.157       .  T
C2706      N2708   1.155       .  T
C2709      C2710   1.410       .  A
C2709      C2714   1.418       .  A
C2710      H2715   1.084       .  S
C2711      C2712   1.417       .  A
C2711      C2718   1.443       .  S
C2712      C2713   1.407       .  A
C2713      H2716   1.080       .  S
C2714      C2717   1.436       .  S
C2717      N2719   1.156       .  T
C2718      N2720   1.157       .  T
C2721      C2722   1.407       .  A
C2721      C2726   1.408       .  A
C2722      C3127   1.401       .  A
C2722      H2727   1.085       .  S
C2723      C3126   1.401   1_554  A
C2723      C2724   1.414       .  A
C2723      C2730   1.445       .  S
C2724      C2725   1.403       .  A
C2725      C3130   1.404   1_554  A
C2725      H2728   1.078       .  S
C2726      C3129   1.405       .  A
C2726      C2729   1.436       .  S
C2729      N2731   1.155       .  T
C2730      N2732   1.157       .  T
C2733      C2734   1.408       .  A
C2733      C2738   1.422       .  A
C2734      C2735   1.407       .  A
C2734      H2739   1.081       .  S
C2735      C2736   1.419       .  A
C2735      C2742   1.443       .  S
C2736      C2737   1.405       .  A
C2737      C2738   1.394       .  A
C2737      H2740   1.085       .  S
C2738      C2741   1.448       .  S
C2741      N2743   1.158       .  T
C2742      N2744   1.158       .  T
C2745      C2746   1.411       .  A
C2745      C2750   1.422       .  A
C2746      H2751   1.084       .  S
C2747      C2748   1.418       .  A
C2747      C2754   1.439       .  S
C2748      C2749   1.409       .  A
C2749      H2752   1.080       .  S
C2750      C2753   1.441       .  S
C2753      N2755   1.157       .  T
C2754      N2756   1.155       .  T
C2757      C2758   1.405       .  A
C2757      C2762   1.409       .  A
C2758      C3163   1.401       .  A
C2758      H2763   1.085       .  S
C2759      C3162   1.401   1_554  A
C2759      C2760   1.418       .  A
C2759      C2766   1.445       .  S
C2760      C2761   1.401       .  A
C2761      C3166   1.405   1_554  A
C2761      H2764   1.080       .  S
C2762      C3165   1.404       .  A
C2762      C2765   1.433       .  S
C2765      N2767   1.153       .  T
C2766      N2768   1.157       .  T
C2769      C2770   1.405       .  A
C2769      C2774   1.414       .  A
C2770      H2775   1.085       .  S
C2771      C2772   1.415       .  A
C2771      C2778   1.445       .  S
C2772      C2773   1.407       .  A
C2773      H2776   1.085       .  S
C2774      C2777   1.442       .  S
C2777      N2779   1.157       .  T
C2778      N2780   1.157       .  T
C2781      C2782   1.411       .  A
C2781      C2786   1.421       .  A
C2782      C2783   1.408       .  A
C2782      H2787   1.084       .  S
C2783      C2784   1.423       .  A
C2783      C2790   1.444       .  S
C2784      C2785   1.411       .  A
C2785      C2786   1.410       .  A
C2785      H2788   1.081       .  S
C2786      C2789   1.442       .  S
C2789      N2791   1.157       .  T
C2790      N2792   1.157       .  T
C2793      C2794   1.409       .  A
C2793      C2798   1.415       .  A
C2794      H2799   1.084       .  S
C2795      C2796   1.420       .  A
C2795      C2802   1.442       .  S
C2796      C2797   1.414       .  A
C2797      H2800   1.083       .  S
C2798      C2801   1.442       .  S
C2801      N2803   1.158       .  T
C2802      N2804   1.158       .  T
C2805      C2806   1.399       .  A
C2805      C2810   1.407       .  A
C2806      C3211   1.392   1_554  A
C2806      H2811   1.086       .  S
C2807      C3210   1.392       .  A
C2807      C2808   1.415       .  A
C2807      C2814   1.445       .  S
C2808      C2809   1.408       .  A
C2809      C3214   1.411       .  A
C2809      H2812   1.083       .  S
C2810      C3213   1.410   1_554  A
C2810      C2813   1.444       .  S
C2813      N2815   1.158       .  T
C2814      N2816   1.157       .  T
C2817      C2818   1.415       .  A
C2817      C2822   1.422       .  A
C2818      C2819   1.400       .  A
C2818      H2823   1.085       .  S
C2819      C2820   1.415       .  A
C2819      C2826   1.446       .  S
C2820      C2821   1.412       .  A
C2821      C2822   1.407       .  A
C2821      H2824   1.077       .  S
C2822      C2825   1.440       .  S
C2825      N2827   1.158       .  T
C2826      N2828   1.158       .  T
O2829     Cr2847   1.962       .  S
O2829      C2837   1.251       .  A
O2830     Cr2847   1.985       .  S
O2830      C2831   1.266       .  A
C2831      O2832   1.266       .  A
C2831      C2930   1.480       .  S
O2832     Cr2848   2.015       .  S
O2833     Cr2848   1.984       .  S
O2833      C2834   1.265       .  A
C2834      O2835   1.266       .  A
C2834      C2906   1.482       .  S
O2835     Cr2849   2.014       .  S
O2836     Cr2849   2.026       .  S
O2836      C2837   1.263       .  A
C2837      C2985   1.484       .  S
O2838     Cr2847   1.975       .  S
O2838      C2846   1.266       .  A
O2839     Cr2847   1.983       .  S
O2839      C2840   1.254       .  A
C2840      O2841   1.265       .  A
C2840      C2961   1.495       .  S
O2841     Cr2848   2.028       .  S
O2842     Cr2848   1.980       .  S
O2842      C2843   1.261       .  A
C2843      O2844   1.267       .  A
C2843      C2889   1.491       .  S
O2844     Cr2849   2.012       .  S
O2845     Cr2849   2.035       .  S
O2845      C2846   1.274       .  A
C2846      C2942   1.481       .  S
Cr2847     O2850   1.770       .  S
Cr2848     O2850   1.773       .  S
Cr2849     O2850   1.786       .  S
C2851      C2852   1.533       .  S
C2851      C2857   1.524       .  S
C2851      C2855   1.541       .  S
C2851      C3224   1.548       .  S
C2852      H2859   1.087       .  S
C2852      C2853   1.368       .  D
C2853      C3209   1.481       .  S
C2853      C2854   1.544       .  S
C2854      C2858   1.546       .  S
C2854      C2856   1.551       .  S
C2854      H2860   1.106       .  S
C2855      H2861   1.079       .  S
C2855      C2856   1.372       .  D
C2856      C3197   1.508       .  S
C2857      H2862   1.087       .  S
C2857      C2858   1.370       .  D
C2858      C2997   1.489       .  S
C2863      C2864   1.535       .  S
C2863      C2869   1.534       .  S
C2863      C2867   1.533       .  S
C2863      C3185   1.557       .  S
C2864      H2871   1.086       .  S
C2864      C2865   1.368       .  D
C2865      C3161   1.497       .  S
C2865      C2866   1.553       .  S
C2866      C2870   1.546       .  S
C2866      C2868   1.554       .  S
C2866      H2872   1.110       .  S
C2867      H2873   1.086       .  S
C2867      C2868   1.372       .  D
C2868      C3173   1.498       .  S
C2869      H2874   1.083       .  S
C2869      C2870   1.376       .  D
C2870      C3012   1.496       .  S
C2875      C2876   1.515       .  S
C2875      C2881   1.527       .  S
C2875      C2879   1.559       .  S
C2875      C3137   1.534       .  S
C2876      H2883   1.088       .  S
C2876      C2877   1.353       .  D
C2877      C3006   1.472       .  S
C2877      C2878   1.553       .  S
C2878      C2882   1.552       .  S
C2878      C2880   1.551       .  S
C2878      H2884   1.106       .  S
C2879      H2885   1.083       .  S
C2879      C2880   1.382       .  D
C2880      C3149   1.520       .  S
C2881      H2886   1.088       .  S
C2881      C2882   1.361       .  D
C2882      C3212   1.486       .  S
C2887      C2888   1.529       .  S
C2887      C2893   1.540       .  S
C2887      C2891   1.540       .  S
C2887      C3152   1.557       .  S
C2888      H2895   1.086       .  S
C2888      C2889   1.373       .  D
C2889      C2890   1.545       .  S
C2890      C2894   1.549       .  S
C2890      C2892   1.551       .  S
C2890      H2896   1.109       .  S
C2891      H2897   1.085       .  S
C2891      C2892   1.371       .  D
C2892      C3176   1.499       .  S
C2893      H2898   1.083       .  S
C2893      C2894   1.368       .  D
C2894      C3125   1.500       .  S
C2899      C2900   1.531       .  S
C2899      C2905   1.524       .  S
C2899      C2903   1.539       .  S
C2899      C3200   1.543       .  S
C2900      H2907   1.087       .  S
C2900      C2901   1.364       .  D
C2901      C3128   1.490       .  S
C2901      C2902   1.556       .  S
C2902      C2906   1.552       .  S
C2902      C2904   1.562       .  S
C2902      H2908   1.106       .  S
C2903      H2909   1.080       .  S
C2903      C2904   1.376       .  D
C2904      C3113   1.519       .  S
C2905      H2910   1.088       .  S
C2905      C2906   1.358       .  D
C2911      C2912   1.542       .  S
C2911      C2917   1.524       .  S
C2911      C2915   1.539       .  S
C2911      C3101   1.543       .  S
C2912      H2919   1.081       .  S
C2912      C2913   1.363       .  D
C2913      C3003   1.477       .  S
C2913      C2914   1.546       .  S
C2914      C2918   1.557       .  S
C2914      C2916   1.552       .  S
C2914      H2920   1.109       .  S
C2915      H2921   1.085       .  S
C2915      C2916   1.374       .  D
C2916      C3116   1.513       .  S
C2917      H2922   1.086       .  S
C2917      C2918   1.363       .  D
C2918      C3164   1.494       .  S
C2923      C2924   1.535       .  S
C2923      C2929   1.532       .  S
C2923      C2927   1.544       .  S
C2923      C3104   1.543       .  S
C2924      H2931   1.086       .  S
C2924      C2925   1.365       .  D
C2925      C3092   1.486       .  S
C2925      C2926   1.547       .  S
C2926      C2930   1.555       .  S
C2926      C2928   1.547       .  S
C2926      H2932   1.106       .  S
C2927      H2933   1.085       .  S
C2927      C2928   1.376       .  D
C2928      C3080   1.514       .  S
C2929      H2934   1.082       .  S
C2929      C2930   1.358       .  D
C2935      C2936   1.528       .  S
C2935      C2941   1.522       .  S
C2935      C2939   1.544       .  S
C2935      C3140   1.537       .  S
C2936      H2943   1.088       .  S
C2936      C2937   1.361       .  D
C2937      C3056   1.487       .  S
C2937      C2938   1.559       .  S
C2938      C2942   1.552       .  S
C2938      C2940   1.548       .  S
C2938      H2944   1.105       .  S
C2939      H2945   1.081       .  S
C2939      C2940   1.378       .  D
C2940      C3068   1.516       .  S
C2941      H2946   1.087       .  S
C2941      C2942   1.362       .  D
C2947      C2948   1.516       .  S
C2947      C2953   1.528       .  S
C2947      C2951   1.540       .  S
C2947      C3041   1.533       .  S
C2948      H2955   1.088       .  S
C2948      C2949   1.356       .  D
C2949      C3009   1.481       .  S
C2949      C2950   1.557       .  S
C2950      C2954   1.551       .  S
C2950      C2952   1.563       .  S
C2950      H2956   1.109       .  S
C2951      H2957   1.079       .  S
C2951      C2952   1.375       .  D
C2952      C3065   1.519       .  S
C2953      H2958   1.087       .  S
C2953      C2954   1.364       .  D
C2954      C3029   1.482       .  S
C2959      C2960   1.537       .  S
C2959      C2965   1.538       .  S
C2959      C2963   1.532       .  S
C2959      C3188   1.554       .  S
C2960      H2967   1.079       .  S
C2960      C2961   1.374       .  D
C2961      C2962   1.543       .  S
C2962      C2966   1.543       .  S
C2962      C2964   1.546       .  S
C2962      H2968   1.109       .  S
C2963      H2969   1.085       .  S
C2963      C2964   1.370       .  D
C2964      C3044   1.495       .  S
C2965      H2970   1.085       .  S
C2965      C2966   1.370       .  D
C2966      C3089   1.483       .  S
C2971      C2972   1.530       .  S
C2971      C2977   1.540       .  S
C2971      C2975   1.543       .  S
C2971      C3077   1.554       .  S
C2972      H2979   1.087       .  S
C2972      C2973   1.366       .  D
C2973      C3032   1.491       .  S
C2973      C2974   1.547       .  S
C2974      C2978   1.541       .  S
C2974      C2976   1.533       .  S
C2974      H2980   1.110       .  S
C2975      H2981   1.083       .  S
C2975      C2976   1.374       .  D
C2976      C3020   1.486       .  S
C2977      H2982   1.082       .  S
C2977      C2978   1.373       .  D
C2978      C3000   1.492       .  S
C2983      C2984   1.527       .  S
C2983      C2989   1.531       .  S
C2983      C2987   1.550       .  S
C2983      C3221   1.552       .  S
C2984      H2991   1.087       .  S
C2984      C2985   1.369       .  D
C2985      C2986   1.538       .  S
C2986      C2990   1.549       .  S
C2986      C2988   1.543       .  S
C2986      H2992   1.107       .  S
C2987      H2993   1.073       .  S
C2987      C2988   1.376       .  D
C2988      C3017   1.497       .  S
C2989      H2994   1.087       .  S
C2989      C2990   1.360       .  D
C2990      C3053   1.484       .  S
O2995     Cr3013   1.978       .  S
O2995      C3003   1.267       .  A
O2996     Cr3013   1.980       .  S
O2996      C2997   1.254       .  A
C2997      O2998   1.262       .  A
O2998     Cr3014   2.020       .  S
O2999     Cr3014   1.973       .  S
O2999      C3000   1.261       .  A
C3000      O3001   1.268       .  A
O3001     Cr3015   2.017       .  S
O3002     Cr3015   2.024       .  S
O3002      C3003   1.272       .  A
O3004     Cr3013   1.966       .  S
O3004      C3012   1.252       .  A
O3005     Cr3013   1.984       .  S
O3005      C3006   1.267       .  A
C3006      O3007   1.265       .  A
O3007     Cr3014   2.008       .  S
O3008     Cr3014   1.979       .  S
O3008      C3009   1.264       .  A
C3009      O3010   1.265       .  A
O3010     Cr3015   2.016       .  S
O3011     Cr3015   2.041       .  S
O3011      C3012   1.267       .  A
Cr3013     O3016   1.765       .  S
Cr3014     O3016   1.774       .  S
Cr3015     O3016   1.787       .  S
C3017      C3018   1.412       .  A
C3017      C3022   1.417       .  A
C3018      H3023   1.085       .  S
C3019      C3020   1.406       .  A
C3019      C3026   1.442       .  S
C3020      C3021   1.399       .  A
C3021      H3024   1.084       .  S
C3022      C3025   1.439       .  S
C3025      N3027   1.156       .  T
C3026      N3028   1.157       .  T
C3029      C3030   1.401       .  A
C3029      C3034   1.411       .  A
C3030      H3035   1.086       .  S
C3031      C3032   1.415       .  A
C3031      C3038   1.442       .  S
C3032      C3033   1.405       .  A
C3033      H3036   1.084       .  S
C3034      C3037   1.443       .  S
C3037      N3039   1.157       .  T
C3038      N3040   1.157       .  T
C3041      C3042   1.409       .  A
C3041      C3046   1.421       .  A
C3042      H3047   1.082       .  S
C3043      C3044   1.414       .  A
C3043      C3050   1.444       .  S
C3044      C3045   1.403       .  A
C3045      H3048   1.083       .  S
C3046      C3049   1.445       .  S
C3049      N3051   1.157       .  T
C3050      N3052   1.157       .  T
C3053      C3054   1.402       .  A
C3053      C3058   1.413       .  A
C3054      H3059   1.085       .  S
C3055      C3056   1.416       .  A
C3055      C3062   1.442       .  S
C3056      C3057   1.403       .  A
C3057      H3060   1.084       .  S
C3058      C3061   1.444       .  S
C3061      N3063   1.157       .  T
C3062      N3064   1.157       .  T
C3065      C3066   1.412       .  A
C3065      C3070   1.424       .  A
C3066      H3071   1.083       .  S
C3067      C3068   1.421       .  A
C3067      C3074   1.442       .  S
C3068      C3069   1.404       .  A
C3069      H3072   1.084       .  S
C3070      C3073   1.441       .  S
C3073      N3075   1.158       .  T
C3074      N3076   1.158       .  T
C3077      C3078   1.413       .  A
C3077      C3082   1.422       .  A
C3078      H3083   1.082       .  S
C3079      C3080   1.417       .  A
C3079      C3086   1.441       .  S
C3080      C3081   1.408       .  A
C3081      H3084   1.085       .  S
C3082      C3085   1.444       .  S
C3085      N3087   1.157       .  T
C3086      N3088   1.157       .  T
C3089      C3090   1.398       .  A
C3089      C3094   1.407       .  A
C3090      H3095   1.085       .  S
C3091      C3092   1.412       .  A
C3091      C3098   1.441       .  S
C3092      C3093   1.409       .  A
C3093      H3096   1.084       .  S
C3094      C3097   1.444       .  S
C3097      N3099   1.158       .  T
C3098      N3100   1.156       .  T
C3101      C3102   1.407       .  A
C3101      C3106   1.421       .  A
C3102      C3103   1.398       .  A
C3102      H3107   1.076       .  S
C3103      C3104   1.419       .  A
C3103      C3110   1.440       .  S
C3104      C3105   1.409       .  A
C3105      C3106   1.404       .  A
C3105      H3108   1.083       .  S
C3106      C3109   1.445       .  S
C3109      N3111   1.157       .  T
C3110      N3112   1.155       .  T
C3113      C3114   1.410       .  A
C3113      C3118   1.417       .  A
C3114      H3119   1.085       .  S
C3115      C3116   1.417       .  A
C3115      C3122   1.443       .  S
C3116      C3117   1.406       .  A
C3117      H3120   1.080       .  S
C3118      C3121   1.436       .  S
C3121      N3123   1.156       .  T
C3122      N3124   1.157       .  T
C3125      C3126   1.407       .  A
C3125      C3130   1.408       .  A
C3126      H3131   1.085       .  S
C3127      C3128   1.413       .  A
C3127      C3134   1.445       .  S
C3128      C3129   1.403       .  A
C3129      H3132   1.078       .  S
C3130      C3133   1.435       .  S
C3133      N3135   1.155       .  T
C3134      N3136   1.157       .  T
C3137      C3138   1.408       .  A
C3137      C3142   1.422       .  A
C3138      C3139   1.406       .  A
C3138      H3143   1.081       .  S
C3139      C3140   1.419       .  A
C3139      C3146   1.443       .  S
C3140      C3141   1.405       .  A
C3141      C3142   1.394       .  A
C3141      H3144   1.085       .  S
C3142      C3145   1.448       .  S
C3145      N3147   1.158       .  T
C3146      N3148   1.158       .  T
C3149      C3150   1.411       .  A
C3149      C3154   1.422       .  A
C3150      H3155   1.084       .  S
C3151      C3152   1.419       .  A
C3151      C3158   1.440       .  S
C3152      C3153   1.410       .  A
C3153      H3156   1.080       .  S
C3154      C3157   1.442       .  S
C3157      N3159   1.157       .  T
C3158      N3160   1.156       .  T
C3161      C3162   1.405       .  A
C3161      C3166   1.409       .  A
C3162      H3167   1.085       .  S
C3163      C3164   1.418       .  A
C3163      C3170   1.445       .  S
C3164      C3165   1.401       .  A
C3165      H3168   1.080       .  S
C3166      C3169   1.432       .  S
C3169      N3171   1.153       .  T
C3170      N3172   1.157       .  T
C3173      C3174   1.405       .  A
C3173      C3178   1.414       .  A
C3174      H3179   1.085       .  S
C3175      C3176   1.415       .  A
C3175      C3182   1.445       .  S
C3176      C3177   1.406       .  A
C3177      H3180   1.085       .  S
C3178      C3181   1.443       .  S
C3181      N3183   1.157       .  T
C3182      N3184   1.157       .  T
C3185      C3186   1.411       .  A
C3185      C3190   1.421       .  A
C3186      C3187   1.408       .  A
C3186      H3191   1.084       .  S
C3187      C3188   1.423       .  A
C3187      C3194   1.444       .  S
C3188      C3189   1.411       .  A
C3189      C3190   1.409       .  A
C3189      H3192   1.080       .  S
C3190      C3193   1.441       .  S
C3193      N3195   1.156       .  T
C3194      N3196   1.157       .  T
C3197      C3198   1.410       .  A
C3197      C3202   1.415       .  A
C3198      H3203   1.084       .  S
C3199      C3200   1.420       .  A
C3199      C3206   1.442       .  S
C3200      C3201   1.413       .  A
C3201      H3204   1.083       .  S
C3202      C3205   1.442       .  S
C3205      N3207   1.158       .  T
C3206      N3208   1.158       .  T
C3209      C3210   1.399       .  A
C3209      C3214   1.407       .  A
C3210      H3215   1.085       .  S
C3211      C3212   1.415       .  A
C3211      C3218   1.445       .  S
C3212      C3213   1.408       .  A
C3213      H3216   1.083       .  S
C3214      C3217   1.444       .  S
C3217      N3219   1.158       .  T
C3218      N3220   1.157       .  T
C3221      C3222   1.415       .  A
C3221      C3226   1.421       .  A
C3222      C3223   1.402       .  A
C3222      H3227   1.085       .  S
C3223      C3224   1.415       .  A
C3223      C3230   1.446       .  S
C3224      C3225   1.412       .  A
C3225      C3226   1.407       .  A
C3225      H3228   1.077       .  S
C3226      C3229   1.440       .  S
C3229      N3231   1.158       .  T
C3230      N3232   1.158       .  T
