geometry optimzed in LAMMPS
_audit_creation_date              2020-11-30 
_audit_creation_method            'lammps2cif' 
_symmetry_space_group_name_H-M    'P1' 
_symmetry_Int_Tables_number       1 
_symmetry_cell_setting            triclinic 
loop_ 
_symmetry_equiv_pos_as_xyz 
  x,y,z 
_cell_length_a                    15.29359888 
_cell_length_b                    16.102215278984037 
_cell_length_c                    40.98796177994179 
_cell_angle_alpha                 89.60310303615994 
_cell_angle_beta                  89.10567428259678 
_cell_angle_gamma                 85.08499782559437 
loop_ 
_atom_site_label 
_atom_site_type_symbol 
_atom_site_fract_x 
_atom_site_fract_y 
_atom_site_fract_z 
_atom_site_charge 
O1          O  0.47118530  0.91735793  0.42994608    -0.74100
O2          O  0.42412095  0.08434829  0.99638568    -0.74100
O3          O  0.41000317  0.07965925  0.43023942    -0.74200
O4          O  0.48355735  0.92209561  0.99663674    -0.74200
O5          O  0.61999795  0.95996312  0.99178318    -0.74100
O6          O  0.54695694  0.11505370  0.42377970    -0.74100
O7          O  0.56042621  0.12184466  0.99048018    -0.74100
O8          O  0.60865109  0.95306102  0.42603131    -0.74200
Ni9        Ni  0.44231688  0.99960348  0.96344417     1.25400
Ni10       Ni  0.58869441  0.03894781  0.45777878     1.25400
C11         C  0.54823820  0.90846798  0.41687719     0.88100
C12         C  0.48576449  0.12829682  0.00524751     0.88000
C13         C  0.46621474  0.12133064  0.41531848     0.88100
C14         C  0.56338893  0.91702271  0.00594860     0.88200
N15         N  0.38592723  0.29122106  0.20759423    -0.03100
C16         C  0.36208379  0.24939457  0.23490308    -0.00500
C17         C  0.30545922  0.19041818  0.22728817    -0.23400
C18         C  0.29480171  0.19440680  0.19426959    -0.23600
C19         C  0.34500180  0.25597817  0.18248255    -0.00600
H20         H  0.27819007  0.14633648  0.24381210     0.13200
H21         H  0.25744294  0.15374557  0.18010734     0.13200
N22         N  0.60187741  0.72564071  0.21182744    -0.03100
C23         C  0.63283240  0.76024646  0.23901417    -0.00500
C24         C  0.68984294  0.81917155  0.23050566    -0.23400
C25         C  0.69268264  0.82246351  0.19706357    -0.23600
C26         C  0.63733769  0.76537275  0.18612683    -0.00600
H27         H  0.72028774  0.86027782  0.24683776     0.13200
H28         H  0.72600398  0.86653803  0.18238787     0.13200
O29         O  0.91742820  0.49799094  0.42593708    -0.74100
O30         O  0.07714832  0.55842781  0.49175794    -0.74100
O31         O  0.07737343  0.55664914  0.42456441    -0.74200
O32         O  0.91716269  0.49908634  0.49281571    -0.74200
O33         O  0.98021171  0.36902799  0.49261894    -0.74100
O34         O  0.13961389  0.42635414  0.42493502    -0.74100
O35         O  0.13946616  0.42820023  0.49214466    -0.74100
O36         O  0.98038821  0.36794690  0.42677128    -0.74200
Ni37       Ni  0.99525582  0.53285534  0.45876606     1.25400
Ni38       Ni  0.06251061  0.39358547  0.45915134     1.25400
C39         C  0.92363552  0.42305658  0.41517036     0.88100
C40         C  0.13153885  0.50202237  0.50402337     0.88000
C41         C  0.13130116  0.49946732  0.41220509     0.88100
C42         C  0.92319428  0.42437733  0.50417873     0.88200
N43         N  0.25388544  0.62881293  0.20684743    -0.03100
C44         C  0.20999946  0.66100440  0.18019140    -0.00500
C45         C  0.13514847  0.70928325  0.18992503    -0.23400
C46         C  0.13216726  0.70721506  0.22329782    -0.23600
C47         C  0.20519589  0.65767206  0.23325991    -0.00600
H48         H  0.08650628  0.74113386  0.17429697     0.13200
H49         H  0.08115333  0.73756186  0.23874062     0.13200
N50         N  0.73283796  0.38819086  0.21084424    -0.03100
C51         C  0.77556799  0.35550717  0.23749954    -0.00500
C52         C  0.84563086  0.30053163  0.22790798    -0.23400
C53         C  0.84718756  0.30013960  0.19447117    -0.23600
C54         C  0.77817827  0.35498900  0.18451185    -0.00600
H55         H  0.89423304  0.26855801  0.24352190     0.13200
H56         H  0.89716397  0.26795387  0.17909099     0.13200
O57         O  0.60631425  0.45195336  0.23715360    -0.74100
O58         O  0.37520429  0.56412924  0.23479187    -0.74100
O59         O  0.44180778  0.40277488  0.23477221    -0.74200
O60         O  0.53934618  0.61320452  0.23736869    -0.74200
O61         O  0.54672457  0.61519306  0.18312294    -0.74100
O62         O  0.44603339  0.40440140  0.18052757    -0.74100
O63         O  0.38146644  0.56704365  0.18060811    -0.74100
O64         O  0.61163434  0.45303628  0.18292316    -0.74200
Ni65       Ni  0.49038332  0.50789056  0.23791624     1.25400
Ni66       Ni  0.49676594  0.51000538  0.17984204     1.25400
C67         C  0.64749271  0.43402078  0.21032872     0.88100
C68         C  0.33991641  0.58429511  0.20739757     0.88000
C69         C  0.42743224  0.36853207  0.20746998     0.88100
C70         C  0.55940476  0.64916651  0.21067997     0.88200
C71         C  0.17900553  0.51963174  0.53433008    -0.04900
C72         C  0.20777241  0.45314814  0.05506922    -0.04800
C73         C  0.23195506  0.46790767  0.08713985    -0.23000
C74         C  0.22901545  0.54919624  0.09914081     0.19200
C75         C  0.20856133  0.61691429  0.07766047     0.16500
C76         C  0.18335321  0.60183466  0.54541275    -0.18000
C77         C  0.20744829  0.69838476  0.08953789    -0.19800
C78         C  0.21820523  0.71224016  0.12283512    -0.12400
C79         C  0.23015631  0.64517032  0.14499121     0.04300
C80         C  0.23941930  0.56354919  0.13271289    -0.24500
H81         H  0.20562007  0.38920295  0.04732020     0.09400
H82         H  0.24856357  0.41575855  0.10314945     0.13000
H83         H  0.16212945  0.65384964  0.52968158     0.12900
H84         H  0.19324460  0.75133609  0.57345667     0.12600
H85         H  0.21084147  0.77571283  0.13170923     0.13200
H86         H  0.24671909  0.51119767  0.14951017     0.15100
C87         C  0.22179282  0.64024902  0.26841884    -0.04900
C88         C  0.21198439  0.70708028  0.29043650    -0.04800
C89         C  0.20331369  0.69296253  0.32393896    -0.23000
C90         C  0.20410579  0.61147808  0.33615673     0.19200
C91         C  0.22091789  0.54350426  0.31460119     0.16500
C92         C  0.22914484  0.55822852  0.28077830    -0.18000
C93         C  0.22306774  0.46206520  0.32704548    -0.19800
C94         C  0.20184050  0.44809943  0.35985611    -0.12400
C95         C  0.17706240  0.51524834  0.38080684     0.04300
C96         C  0.18217778  0.59698341  0.36906511    -0.26000
H97         H  0.20591901  0.77070062  0.28144064     0.09400
H98         H  0.19153642  0.74588199  0.34008503     0.13000
H99         H  0.23475560  0.50616631  0.26401761     0.12900
H100        H  0.23672228  0.40915828  0.31105154     0.12600
H101        H  0.19847271  0.38450556  0.36819073     0.13200
H102        H  0.16380588  0.64933385  0.38496745     0.15100
C103        C  0.77028992  0.38392977  0.15020522    -0.04900
C104        C  0.76982133  0.46926328  0.14276495    -0.04800
C105        C  0.78622250  0.49572199  0.11083988    -0.23000
C106        C  0.80596252  0.43702826  0.08607777     0.19200
C107        C  0.80115679  0.35132267  0.09299207     0.16500
C108        C  0.78207652  0.32552465  0.12488418    -0.18000
C109        C  0.82278797  0.29233196  0.06858107    -0.19800
C110        C  0.85688410  0.31718193  0.03863106    -0.12400
C111        C  0.86808430  0.40158113  0.03229561     0.04300
C112        C  0.83771746  0.46180825  0.05544717    -0.24500
H113        H  0.76273763  0.51518875  0.16202103     0.09400
H114        H  0.78933092  0.56167352  0.10601932     0.13000
H115        H  0.78330246  0.25953555  0.13056477     0.12900
H116        H  0.81850555  0.22649466  0.07333768     0.12600
H117        H  0.87854930  0.26979527  0.02096110     0.13200
H118        H  0.84617691  0.52703738  0.05082604     0.15100
C119        C  0.76422385  0.38392259  0.27179828    -0.04900
C120        C  0.76034300  0.46922917  0.27932000    -0.04800
C121        C  0.77707913  0.49507201  0.31104106    -0.23000
C122        C  0.80102123  0.43589578  0.33536462     0.19200
C123        C  0.79910864  0.35017424  0.32844503     0.16500
C124        C  0.77863668  0.32502287  0.29700179    -0.18000
C125        C  0.82546060  0.29057318  0.35215274    -0.19800
C126        C  0.86092447  0.31510860  0.38134680    -0.12400
C127        C  0.86877585  0.39978774  0.38774387     0.04300
C128        C  0.83415815  0.46032351  0.36536880    -0.24500
H129        H  0.75108940  0.51578572  0.26020454     0.09400
H130        H  0.77774927  0.56110351  0.31587160     0.13000
H131        H  0.78210176  0.25910828  0.29132773     0.12900
H132        H  0.82376992  0.22465224  0.34730289     0.12600
H133        H  0.88592082  0.26736732  0.39834803     0.13200
H134        H  0.83997469  0.52581548  0.36999182     0.15100
C135        C  0.47316727  0.18135981  0.03472617    -0.04900
C136        C  0.54632317  0.20168555  0.05256547    -0.04800
C137        C  0.53580998  0.23343672  0.08426422    -0.23000
C138        C  0.45188712  0.24570432  0.09865780     0.19200
C139        C  0.37768927  0.23253682  0.07975380     0.16500
C140        C  0.38873505  0.20093424  0.04795905    -0.18000
C141        C  0.29375738  0.24481981  0.09380320    -0.19800
C142        C  0.28359032  0.26274003  0.12693453    -0.12400
C143        C  0.35687409  0.26890363  0.14680911     0.04300
C144        C  0.44107479  0.26403457  0.13218799    -0.24500
H145        H  0.61224119  0.18774015  0.04291947     0.09400
H146        H  0.59360257  0.24411197  0.09809496     0.13000
H147        H  0.33175476  0.18643647  0.03436472     0.12900
H148        H  0.23606796  0.23606056  0.07961851     0.12600
H149        H  0.21812444  0.26632779  0.13759998     0.13200
H150        H  0.49834208  0.26617453  0.14731964     0.15100
C151        C  0.43689415  0.17242476  0.38667695    -0.04900
C152        C  0.34663037  0.19304963  0.38229639    -0.04800
C153        C  0.31511167  0.22397283  0.35248245    -0.23000
C154        C  0.37320078  0.23410075  0.32632293     0.19200
C155        C  0.46465974  0.21931233  0.33093013     0.16500
C156        C  0.49618598  0.18965244  0.36134708    -0.18000
C157        C  0.52222959  0.22838854  0.30431708    -0.19800
C158        C  0.48905995  0.24540721  0.27305068    -0.12400
C159        C  0.39805487  0.25493553  0.26810905     0.04300
C160        C  0.34074256  0.25251897  0.29509238    -0.24500
H161        H  0.29969625  0.18132673  0.40149331     0.09400
H162        H  0.24489864  0.23553394  0.34936202     0.13000
H163        H  0.56590060  0.17372653  0.36436651     0.12900
H164        H  0.59256016  0.21763098  0.30731212     0.12600
H165        H  0.53427209  0.24575575  0.25244968     0.13200
H166        H  0.27045398  0.25904206  0.29131649     0.15100
C167        C  0.58980093  0.86537083  0.03473808    -0.04900
C168        C  0.67925435  0.84660574  0.04120900    -0.04800
C169        C  0.70583059  0.81154401  0.07103805    -0.23000
C170        C  0.64344661  0.79595530  0.09518507     0.19200
C171        C  0.55301663  0.81014957  0.08842452     0.16500
C172        C  0.52666718  0.84359848  0.05798084    -0.18000
C173        C  0.49092638  0.79607419  0.11302908    -0.19800
C174        C  0.51840158  0.77441657  0.14462888    -0.12400
C175        C  0.60824299  0.76477798  0.15185789     0.04300
C176        C  0.67029708  0.77222010  0.12666655    -0.24500
H177        H  0.72902740  0.86203426  0.02363388     0.09400
H178        H  0.77535734  0.80049312  0.07580392     0.13000
H179        H  0.45741965  0.85814564  0.05336546     0.12900
H180        H  0.42129146  0.80648342  0.10834374     0.12600
H181        H  0.46945706  0.77061049  0.16385490     0.13200
H182        H  0.73966203  0.76545405  0.13220775     0.15100
C183        C  0.56889992  0.84966456  0.38969843    -0.04900
C184        C  0.65603606  0.81609060  0.38502168    -0.04800
C185        C  0.68295634  0.77776851  0.35571799    -0.23000
C186        C  0.62353176  0.77381620  0.33026812     0.19200
C187        C  0.53402353  0.80127544  0.33548892     0.16500
C188        C  0.50681721  0.83792098  0.36551694    -0.18000
C189        C  0.47519114  0.79803805  0.30963473    -0.19800
C190        C  0.50629559  0.77552559  0.27830917    -0.12400
C191        C  0.59632030  0.75500790  0.27253963     0.04300
C192        C  0.65378117  0.75000604  0.29894505    -0.24500
H193        H  0.70464055  0.82349776  0.40348676     0.09400
H194        H  0.75150493  0.75606848  0.35224435     0.13000
H195        H  0.43955554  0.86400591  0.36884221     0.12900
H196        H  0.40626612  0.81821617  0.31311913     0.12600
H197        H  0.46118932  0.78068889  0.25813242     0.13200
H198        H  0.72339376  0.73474522  0.29448815     0.15100
O199        O  0.47123891  0.91734946  0.92994632    -0.74100
O200        O  0.42406124  0.08435929  0.49638458    -0.74100
O201        O  0.41006399  0.07965198  0.93024088    -0.74200
O202        O  0.48350404  0.92210858  0.49663691    -0.74200
O203        O  0.61994294  0.95997947  0.49178160    -0.74100
O204        O  0.54702030  0.11503925  0.92378064    -0.74100
O205        O  0.56036521  0.12185867  0.49047870    -0.74100
O206        O  0.60870792  0.95304416  0.92603265    -0.74200
Ni207      Ni  0.44225985  0.99961322  0.46344350     1.25400
Ni208      Ni  0.58875380  0.03893228  0.95778016     1.25400
C209        C  0.54829194  0.90845553  0.91687776     0.88100
C210        C  0.48570426  0.12830854  0.50524644     0.88000
C211        C  0.46627773  0.12132041  0.91531980     0.88100
C212        C  0.56333621  0.91703848  0.50594812     0.88200
N213        N  0.38593827  0.29121205  0.70759803    -0.03100
C214        C  0.36210535  0.24938529  0.73490823    -0.00500
C215        C  0.30547155  0.19041396  0.72729727    -0.23400
C216        C  0.29479680  0.19440580  0.69427968    -0.23600
C217        C  0.34499564  0.25597447  0.68248920    -0.00600
H218        H  0.27820640  0.14633406  0.74382303     0.13200
H219        H  0.25742717  0.15374795  0.68012016     0.13200
N220        N  0.60187440  0.72563987  0.71182566    -0.03100
C221        C  0.63283534  0.76024413  0.73901172    -0.00500
C222        C  0.68983644  0.81917636  0.73050190    -0.23400
C223        C  0.69266438  0.82247403  0.69705982    -0.23600
C224        C  0.63732203  0.76537944  0.68612435    -0.00600
H225        H  0.72028191  0.86028351  0.74683348     0.13200
H226        H  0.72597614  0.86655418  0.68238353     0.13200
O227        O  0.91741984  0.49797967  0.92593946    -0.74100
O228        O  0.07713597  0.55842277  0.99175997    -0.74100
O229        O  0.07736266  0.55664124  0.92456641    -0.74200
O230        O  0.91715196  0.49907652  0.99281761    -0.74200
O231        O  0.98020361  0.36901912  0.99262155    -0.74100
O232        O  0.13960603  0.42634732  0.92493812    -0.74100
O233        O  0.13945662  0.42819621  0.99214779    -0.74100
O234        O  0.98038255  0.36793656  0.92677409    -0.74200
Ni235      Ni  0.99524525  0.53284676  0.95876819     1.25400
Ni236      Ni  0.06250308  0.39357800  0.95915435     1.25400
C237        C  0.92362936  0.42304530  0.91517286     0.88100
C238        C  0.13152758  0.50201910  0.00402583     0.88000
C239        C  0.13129109  0.49945949  0.91220738     0.88100
C240        C  0.92318381  0.42436737  0.00418054     0.88200
N241        N  0.25389018  0.62879489  0.70684831    -0.03100
C242        C  0.21000284  0.66098421  0.68019224    -0.00500
C243        C  0.13514833  0.70925805  0.68992575    -0.23400
C244        C  0.13216641  0.70718911  0.72329851    -0.23600
C245        C  0.20519820  0.65765083  0.73326067    -0.00600
H246        H  0.08650493  0.74110658  0.67429759     0.13200
H247        H  0.08115046  0.73753277  0.73874128     0.13200
N248        N  0.73285489  0.38819645  0.71084406    -0.03100
C249        C  0.77558674  0.35551460  0.73749925    -0.00500
C250        C  0.84565732  0.30054827  0.72790772    -0.23400
C251        C  0.84721678  0.30015989  0.69447094    -0.23600
C252        C  0.77820123  0.35500205  0.68451176    -0.00600
H253        H  0.89426163  0.26857839  0.74352176     0.13200
H254        H  0.89719781  0.26798109  0.67909074     0.13200
O255        O  0.60632763  0.45195160  0.73715348    -0.74100
O256        O  0.37521238  0.56411746  0.73479283    -0.74100
O257        O  0.44182370  0.40276591  0.73477395    -0.74200
O258        O  0.53935193  0.61320032  0.73736783    -0.74200
O259        O  0.54672775  0.61518730  0.68312201    -0.74100
O260        O  0.44604508  0.40439003  0.68052932    -0.74100
O261        O  0.38147287  0.56703009  0.68060901    -0.74100
O262        O  0.61164581  0.45303227  0.68292299    -0.74200
Ni263      Ni  0.49039437  0.50788390  0.73791664     1.25400
Ni264      Ni  0.49677425  0.50999637  0.67984241     1.25400
C265        C  0.64750626  0.43402019  0.71032852     0.88100
C266        C  0.33992301  0.58428092  0.70739853     0.88000
C267        C  0.42744549  0.36852203  0.70747221     0.88100
C268        C  0.55940703  0.64916266  0.71067878     0.88200
C269        C  0.17899338  0.51963167  0.03433232    -0.04900
C270        C  0.20778941  0.45314577  0.55506511    -0.04800
C271        C  0.23197290  0.46790104  0.58713605    -0.23000
C272        C  0.22902860  0.54918795  0.59913918     0.19200
C273        C  0.20857081  0.61690880  0.57766055     0.16500
C274        C  0.18334439  0.60183596  0.04541294    -0.18000
C275        C  0.20745492  0.69837768  0.58953986    -0.19800
C276        C  0.21821147  0.71222846  0.62283742    -0.12400
C277        C  0.23016388  0.64515552  0.64499198     0.04300
C278        C  0.23943118  0.56353619  0.63271173    -0.24500
H279        H  0.20564084  0.38920141  0.54731439     0.09400
H280        H  0.24858654  0.41574970  0.60314404     0.13000
H281        H  0.16212383  0.65384908  0.02968033     0.12900
H282        H  0.19324011  0.75134104  0.07345343     0.12600
H283        H  0.21084527  0.77569972  0.63171300     0.13200
H284        H  0.24673273  0.51118227  0.64950774     0.15100
C285        C  0.22179595  0.64022974  0.76841960    -0.04900
C286        C  0.21198949  0.70706258  0.79043659    -0.04800
C287        C  0.20331518  0.69294727  0.82393912    -0.23000
C288        C  0.20410083  0.61146391  0.83615759     0.19200
C289        C  0.22091067  0.54348828  0.81460267     0.16500
C290        C  0.22914281  0.55821014  0.78077977    -0.18000
C291        C  0.22305368  0.46205028  0.82704751    -0.19800
C292        C  0.20182427  0.44808740  0.85985813    -0.12400
C293        C  0.17705037  0.51523822  0.88080846     0.04300
C294        C  0.18216985  0.59697214  0.86906601    -0.26000
H295        H  0.20592774  0.77068224  0.78144005     0.09400
H296        H  0.19153984  0.74586816  0.84008466     0.13000
H297        H  0.23475290  0.50614699  0.76401944     0.12900
H298        H  0.23670558  0.40914201  0.81105403     0.12600
H299        H  0.19845233  0.38449445  0.86819313     0.13200
H300        H  0.16380050  0.64932407  0.88496794     0.15100
C301        C  0.77030996  0.38394259  0.65020537    -0.04900
C302        C  0.76983920  0.46927611  0.64276495    -0.04800
C303        C  0.78624044  0.49573446  0.61083976    -0.23000
C304        C  0.80598057  0.43704036  0.58607771     0.19200
C305        C  0.80117629  0.35133481  0.59299238     0.16500
C306        C  0.78209765  0.32553714  0.62488461    -0.18000
C307        C  0.82280651  0.29234360  0.56858155    -0.19800
C308        C  0.85689914  0.31719309  0.53863096    -0.12400
C309        C  0.86809782  0.40159220  0.53229484     0.04300
C310        C  0.83773316  0.46181989  0.55544661    -0.24500
H311        H  0.76275393  0.51520159  0.66202098     0.09400
H312        H  0.78934769  0.56168601  0.60601898     0.13000
H313        H  0.78332547  0.25954806  0.63056550     0.12900
H314        H  0.81852537  0.22650636  0.57333858     0.12600
H315        H  0.87856290  0.26980597  0.52096099     0.13200
H316        H  0.84619171  0.52704892  0.55082505     0.15100
C317        C  0.76423535  0.38392431  0.77179829    -0.04900
C318        C  0.76035131  0.46922986  0.77932173    -0.04800
C319        C  0.77708219  0.49506888  0.81104366    -0.23000
C320        C  0.80102233  0.43588975  0.83536635     0.19200
C321        C  0.79911286  0.35016890  0.82844495     0.16500
C322        C  0.77864614  0.32502118  0.79700069    -0.18000
C323        C  0.82546372  0.29056533  0.85215193    -0.19800
C324        C  0.86092430  0.31509813  0.88134700    -0.12400
C325        C  0.86877242  0.39977689  0.88774574     0.04300
C326        C  0.83415507  0.46031456  0.86537147    -0.24500
H327        H  0.75109957  0.51578870  0.76020701     0.09400
H328        H  0.77775022  0.56109981  0.81587567     0.13000
H329        H  0.78211453  0.25910738  0.79132506     0.12900
H330        H  0.82377549  0.22464488  0.84730066     0.12600
H331        H  0.88592100  0.26735547  0.89834764     0.13200
H332        H  0.83996938  0.52580624  0.86999583     0.15100
C333        C  0.47310960  0.18136857  0.53472593    -0.04900
C334        C  0.54626892  0.20170429  0.55256105    -0.04800
C335        C  0.53576424  0.23345240  0.58426036    -0.23000
C336        C  0.45184648  0.24570818  0.59865864     0.19200
C337        C  0.37764338  0.23253081  0.57975906     0.16500
C338        C  0.38868062  0.20092980  0.54796379    -0.18000
C339        C  0.29371630  0.24480477  0.59381310    -0.19800
C340        C  0.28356046  0.26272829  0.62694455    -0.12400
C341        C  0.35685142  0.26889963  0.64681497     0.04300
C342        C  0.44104589  0.26403771  0.63218914    -0.24500
H343        H  0.61218451  0.18776930  0.54291125     0.09400
H344        H  0.59356032  0.24413569  0.59808770     0.13000
H345        H  0.33169751  0.18642412  0.53437281     0.12900
H346        H  0.23602268  0.23603850  0.57963178     0.12600
H347        H  0.21809871  0.26631123  0.63761347     0.13200
H348        H  0.49831902  0.26618292  0.64731737     0.15100
C349        C  0.43695725  0.17241672  0.88667890    -0.04900
C350        C  0.34669406  0.19305358  0.88230221    -0.04800
C351        C  0.31516987  0.22397873  0.85248944    -0.23000
C352        C  0.37325267  0.23409705  0.82632719     0.19200
C353        C  0.46471228  0.21929691  0.83093026     0.16500
C354        C  0.49624464  0.18963423  0.86134612    -0.18000
C355        C  0.52227514  0.22836489  0.80431438    -0.19800
C356        C  0.48909662  0.24538675  0.77304939    -0.12400
C357        C  0.39808991  0.25492501  0.76811207     0.04300
C358        C  0.34078595  0.25251712  0.79509809    -0.24500
H359        H  0.29976368  0.18133834  0.90150139     0.09400
H360        H  0.24495658  0.23554847  0.84937209     0.13000
H361        H  0.56595860  0.17369866  0.86436259     0.12900
H362        H  0.59260612  0.21759888  0.80730623     0.12600
H363        H  0.53430213  0.24572945  0.75244620     0.13200
H364        H  0.27049609  0.25904756  0.79132540     0.15100
C365        C  0.58975249  0.86538853  0.53473776    -0.04900
C366        C  0.67920715  0.84662306  0.54120632    -0.04800
C367        C  0.70578912  0.81156029  0.57103450    -0.23000
C368        C  0.64340990  0.79597017  0.59518305     0.19200
C369        C  0.55297845  0.81016569  0.58842521     0.16500
C370        C  0.52662297  0.84361667  0.55798239    -0.18000
C371        C  0.49089342  0.79608765  0.61303144    -0.19800
C372        C  0.51837554  0.77442528  0.64463015    -0.12400
C373        C  0.60821871  0.76478631  0.65185641     0.04300
C374        C  0.67026713  0.77223147  0.62666338    -0.24500
H375        H  0.72897701  0.86205114  0.52362985     0.09400
H376        H  0.77531687  0.80050857  0.57579834     0.13000
H377        H  0.45737451  0.85816425  0.55336886     0.12900
H378        H  0.42125740  0.80649751  0.60834821     0.12600
H379        H  0.46943535  0.77061597  0.66385751     0.13200
H380        H  0.73963336  0.76546483  0.63220249     0.15100
C381        C  0.56894816  0.84965354  0.88969804    -0.04900
C382        C  0.65608289  0.81607864  0.88501813    -0.04800
C383        C  0.68299447  0.77775565  0.85571360    -0.23000
C384        C  0.62356257  0.77380400  0.83026599     0.19200
C385        C  0.53405596  0.80126411  0.83549023     0.16500
C386        C  0.50685866  0.83791018  0.86551902    -0.18000
C387        C  0.47521573  0.79802748  0.80963854    -0.19800
C388        C  0.50631079  0.77551612  0.77831178    -0.12400
C389        C  0.59633388  0.75499908  0.77253850     0.04300
C390        C  0.65380270  0.74999499  0.79894161    -0.24500
H391        H  0.70469254  0.82348521  0.90348132     0.09400
H392        H  0.75154203  0.75605473  0.85223744     0.13000
H393        H  0.43959793  0.86399556  0.86884672     0.12900
H394        H  0.40629178  0.81820610  0.81312575     0.12600
H395        H  0.46119852  0.78068092  0.75813689     0.13200
H396        H  0.72341412  0.73473471  0.79448181     0.15100
loop_ 
_geom_bond_atom_site_label_1 
_geom_bond_atom_site_label_2 
_geom_bond_distance 
_geom_bond_site_symmetry_2 
_ccdc_geom_bond_type 
O1           C11   1.284       .  A
O1         Ni207   1.934       .  S
O2           C12   1.285   1_556  A
O2           Ni9   1.926   1_545  S
O3           C13   1.281       .  A
O3         Ni207   1.909   1_545  S
O4           C14   1.281   1_556  A
O4           Ni9   1.917       .  S
O5           C14   1.283   1_556  A
O5         Ni208   1.918   1_565  S
O6           C13   1.283       .  A
O6          Ni10   1.929       .  S
O7           C12   1.281   1_556  A
O7         Ni208   1.917       .  S
O8           C11   1.280       .  A
O8          Ni10   1.908   1_565  S
Ni9         O199   1.934       .  S
Ni9         O201   1.909   1_565  S
Ni9        Ni208   2.386   1_565  S
Ni10        O203   1.918   1_545  S
Ni10        O205   1.917       .  S
Ni10       Ni207   2.386   1_545  S
C11         C183   1.480       .  S
C12         C135   1.485       .  S
C13         C151   1.482       .  S
C14         C167   1.480       .  S
N15          C19   1.365       .  A
N15          C16   1.363       .  A
N15          C69   1.445       .  S
C16         C159   1.482       .  S
C16          C17   1.379       .  A
C17          C18   1.366       .  A
C17          H20   1.082       .  S
C18          C19   1.385       .  A
C18          H21   1.082       .  S
C19         C143   1.486       .  S
N22          C26   1.358       .  A
N22          C23   1.359       .  A
N22          C70   1.442       .  S
C23         C191   1.480       .  S
C23          C24   1.382       .  A
C24          C25   1.372       .  A
C24          H27   1.082       .  S
C25          C26   1.383       .  A
C25          H28   1.082       .  S
C26         C175   1.480       .  S
O29          C39   1.283       .  A
O29         Ni37   1.928       .  S
O30          C40   1.283       .  A
O30         Ni37   1.928   1_455  S
O31          C41   1.284       .  A
O31         Ni37   1.926   1_455  S
O32          C42   1.283       .  A
O32         Ni37   1.928       .  S
O33          C42   1.280       .  A
O33         Ni38   1.909   1_655  S
O34          C41   1.282       .  A
O34         Ni38   1.918       .  S
O35          C40   1.283       .  A
O35         Ni38   1.923       .  S
O36          C39   1.281       .  A
O36         Ni38   1.913   1_655  S
Ni37        Ni38   2.386   1_655  S
C39         C127   1.482       .  S
C40          C71   1.490       .  S
C41          C95   1.486       .  S
C42         C309   1.480       .  S
N43          C47   1.366       .  A
N43          C44   1.367       .  A
N43          C68   1.444       .  S
C44          C79   1.490       .  S
C44          C45   1.383       .  A
C45          C46   1.368       .  A
C45          H48   1.082       .  S
C46          C47   1.381       .  A
C46          H49   1.082       .  S
C47          C87   1.488       .  S
N50          C54   1.361       .  A
N50          C51   1.361       .  A
N50          C67   1.444       .  S
C51         C119   1.484       .  S
C51          C52   1.384       .  A
C52          C53   1.370       .  A
C52          H55   1.083       .  S
C53          C54   1.382       .  A
C53          H56   1.082       .  S
C54         C103   1.482       .  S
O57          C67   1.281       .  A
O57         Ni65   1.919       .  S
O58          C68   1.281       .  A
O58         Ni65   1.916       .  S
O59          C69   1.281       .  A
O59         Ni65   1.912       .  S
O60          C70   1.280       .  A
O60         Ni65   1.911       .  S
O61          C70   1.283       .  A
O61         Ni66   1.923       .  S
O62          C69   1.282       .  A
O62         Ni66   1.928       .  S
O63          C68   1.280       .  A
O63         Ni66   1.917       .  S
O64          C67   1.281       .  A
O64         Ni66   1.916       .  S
Ni65        Ni66   2.381       .  S
C71          C76   1.410       .  A
C71         C270   1.407       .  A
C72          C73   1.398       .  A
C72         C269   1.407       .  A
C72          H81   1.083       .  S
C73          C74   1.398       .  A
C73          H82   1.078       .  S
C74          C80   1.411       .  A
C74          C75   1.414       .  A
C75          C77   1.401       .  A
C75         C274   1.411       .  A
C76         C273   1.411       .  A
C76          H83   1.084       .  S
C77          C78   1.399       .  A
C77         H282   1.083       .  S
C78          C79   1.408       .  A
C78          H85   1.083       .  S
C79          C80   1.406       .  A
C80          H86   1.084       .  S
H84         C275   1.083       .  S
C87          C88   1.406       .  A
C87          C92   1.407       .  A
C88          C89   1.396       .  A
C88          H97   1.083       .  S
C89          C90   1.400       .  A
C89          H98   1.084       .  S
C90          C96   1.408       .  A
C90          C91   1.415       .  A
C91          C93   1.402       .  A
C91          C92   1.410       .  A
C92          H99   1.084       .  S
C93          C94   1.400       .  A
C93         H100   1.083       .  S
C94          C95   1.408       .  A
C94         H101   1.082       .  S
C95          C96   1.406       .  A
C96         H102   1.084       .  S
C103        C104   1.405       .  A
C103        C108   1.405       .  A
C104        C105   1.399       .  A
C104        H113   1.083       .  S
C105        C106   1.403       .  A
C105        H114   1.084       .  S
C106        C112   1.407       .  A
C106        C107   1.415       .  A
C107        C109   1.401       .  A
C107        C108   1.403       .  A
C108        H115   1.085       .  S
C109        C110   1.396       .  A
C109        H116   1.084       .  S
C110        C111   1.406       .  A
C110        H117   1.083       .  S
C111        C240   1.480       .  S
C111        C112   1.407       .  A
C112        H118   1.084       .  S
C119        C120   1.406       .  A
C119        C124   1.405       .  A
C120        C121   1.402       .  A
C120        H129   1.083       .  S
C121        C122   1.405       .  A
C121        H130   1.084       .  S
C122        C128   1.409       .  A
C122        C123   1.414       .  A
C123        C125   1.400       .  A
C123        C124   1.402       .  A
C124        H131   1.085       .  S
C125        C126   1.395       .  A
C125        H132   1.084       .  S
C126        C127   1.406       .  A
C126        H133   1.083       .  S
C127        C128   1.409       .  A
C128        H134   1.084       .  S
C135        C136   1.409       .  A
C135        C140   1.404       .  A
C136        C137   1.401       .  A
C136        H145   1.083       .  S
C137        C138   1.403       .  A
C137        H146   1.084       .  S
C138        C144   1.412       .  A
C138        C139   1.416       .  A
C139        C141   1.398       .  A
C139        C140   1.405       .  A
C140        H147   1.085       .  S
C141        C142   1.394       .  A
C141        H148   1.084       .  S
C142        C143   1.407       .  A
C142        H149   1.083       .  S
C143        C144   1.408       .  A
C144        H150   1.084       .  S
C151        C152   1.406       .  A
C151        C156   1.410       .  A
C152        C153   1.394       .  A
C152        H161   1.083       .  S
C153        C154   1.399       .  A
C153        H162   1.083       .  S
C154        C160   1.401       .  A
C154        C155   1.414       .  A
C155        C157   1.406       .  A
C155        C156   1.409       .  A
C156        H163   1.084       .  S
C157        C158   1.402       .  A
C157        H164   1.083       .  S
C158        C159   1.405       .  A
C158        H165   1.083       .  S
C159        C160   1.403       .  A
C160        H166   1.085       .  S
C167        C168   1.405       .  A
C167        C172   1.410       .  A
C168        C169   1.395       .  A
C168        H177   1.083       .  S
C169        C170   1.400       .  A
C169        H178   1.084       .  S
C170        C176   1.401       .  A
C170        C171   1.414       .  A
C171        C173   1.405       .  A
C171        C172   1.407       .  A
C172        H179   1.084       .  S
C173        C174   1.400       .  A
C173        H180   1.084       .  S
C174        C175   1.405       .  A
C174        H181   1.083       .  S
C175        C176   1.403       .  A
C176        H182   1.085       .  S
C183        C184   1.405       .  A
C183        C188   1.408       .  A
C184        C185   1.394       .  A
C184        H193   1.083       .  S
C185        C186   1.399       .  A
C185        H194   1.084       .  S
C186        C192   1.403       .  A
C186        C187   1.415       .  A
C187        C189   1.405       .  A
C187        C188   1.410       .  A
C188        H195   1.084       .  S
C189        C190   1.401       .  A
C189        H196   1.084       .  S
C190        C191   1.405       .  A
C190        H197   1.083       .  S
C191        C192   1.402       .  A
C192        H198   1.085       .  S
O199        C209   1.284       .  A
O200        C210   1.285       .  A
O200       Ni207   1.926   1_545  S
O201        C211   1.281       .  A
O202        C212   1.281       .  A
O202       Ni207   1.917       .  S
O203        C212   1.283       .  A
O204        C211   1.283       .  A
O204       Ni208   1.929       .  S
O205        C210   1.281       .  A
O206        C209   1.280       .  A
O206       Ni208   1.908   1_565  S
C209        C381   1.480       .  S
C210        C333   1.485       .  S
C211        C349   1.482       .  S
C212        C365   1.480       .  S
N213        C217   1.365       .  A
N213        C214   1.363       .  A
N213        C267   1.445       .  S
C214        C357   1.482       .  S
C214        C215   1.379       .  A
C215        C216   1.366       .  A
C215        H218   1.082       .  S
C216        C217   1.385       .  A
C216        H219   1.082       .  S
C217        C341   1.486       .  S
N220        C224   1.358       .  A
N220        C221   1.359       .  A
N220        C268   1.442       .  S
C221        C389   1.480       .  S
C221        C222   1.382       .  A
C222        C223   1.372       .  A
C222        H225   1.082       .  S
C223        C224   1.383       .  A
C223        H226   1.082       .  S
C224        C373   1.480       .  S
O227        C237   1.283       .  A
O227       Ni235   1.928       .  S
O228        C238   1.283   1_556  A
O228       Ni235   1.928   1_455  S
O229        C239   1.284       .  A
O229       Ni235   1.926   1_455  S
O230        C240   1.283   1_556  A
O230       Ni235   1.928       .  S
O231        C240   1.280   1_556  A
O231       Ni236   1.909   1_655  S
O232        C239   1.282       .  A
O232       Ni236   1.918       .  S
O233        C238   1.283   1_556  A
O233       Ni236   1.923       .  S
O234        C237   1.281       .  A
O234       Ni236   1.913   1_655  S
Ni235      Ni236   2.386   1_655  S
C237        C325   1.482       .  S
C238        C269   1.490       .  S
C239        C293   1.486       .  S
N241        C245   1.366       .  A
N241        C242   1.367       .  A
N241        C266   1.444       .  S
C242        C277   1.490       .  S
C242        C243   1.383       .  A
C243        C244   1.368       .  A
C243        H246   1.082       .  S
C244        C245   1.381       .  A
C244        H247   1.082       .  S
C245        C285   1.488       .  S
N248        C252   1.361       .  A
N248        C249   1.361       .  A
N248        C265   1.444       .  S
C249        C317   1.484       .  S
C249        C250   1.384       .  A
C250        C251   1.370       .  A
C250        H253   1.083       .  S
C251        C252   1.382       .  A
C251        H254   1.082       .  S
C252        C301   1.482       .  S
O255        C265   1.281       .  A
O255       Ni263   1.919       .  S
O256        C266   1.281       .  A
O256       Ni263   1.916       .  S
O257        C267   1.281       .  A
O257       Ni263   1.912       .  S
O258        C268   1.280       .  A
O258       Ni263   1.911       .  S
O259        C268   1.283       .  A
O259       Ni264   1.923       .  S
O260        C267   1.282       .  A
O260       Ni264   1.929       .  S
O261        C266   1.280       .  A
O261       Ni264   1.917       .  S
O262        C265   1.281       .  A
O262       Ni264   1.916       .  S
Ni263      Ni264   2.381       .  S
C269        C274   1.410       .  A
C270        C271   1.398       .  A
C270        H279   1.083       .  S
C271        C272   1.398       .  A
C271        H280   1.078       .  S
C272        C278   1.411       .  A
C272        C273   1.414       .  A
C273        C275   1.401       .  A
C274        H281   1.084       .  S
C275        C276   1.399       .  A
C276        C277   1.408       .  A
C276        H283   1.083       .  S
C277        C278   1.406       .  A
C278        H284   1.084       .  S
C285        C286   1.406       .  A
C285        C290   1.407       .  A
C286        C287   1.396       .  A
C286        H295   1.083       .  S
C287        C288   1.400       .  A
C287        H296   1.084       .  S
C288        C294   1.408       .  A
C288        C289   1.415       .  A
C289        C291   1.402       .  A
C289        C290   1.410       .  A
C290        H297   1.084       .  S
C291        C292   1.400       .  A
C291        H298   1.083       .  S
C292        C293   1.408       .  A
C292        H299   1.082       .  S
C293        C294   1.406       .  A
C294        H300   1.084       .  S
C301        C302   1.405       .  A
C301        C306   1.405       .  A
C302        C303   1.399       .  A
C302        H311   1.083       .  S
C303        C304   1.403       .  A
C303        H312   1.084       .  S
C304        C310   1.407       .  A
C304        C305   1.415       .  A
C305        C307   1.401       .  A
C305        C306   1.403       .  A
C306        H313   1.085       .  S
C307        C308   1.396       .  A
C307        H314   1.084       .  S
C308        C309   1.406       .  A
C308        H315   1.083       .  S
C309        C310   1.407       .  A
C310        H316   1.084       .  S
C317        C318   1.406       .  A
C317        C322   1.405       .  A
C318        C319   1.402       .  A
C318        H327   1.083       .  S
C319        C320   1.405       .  A
C319        H328   1.084       .  S
C320        C326   1.409       .  A
C320        C321   1.414       .  A
C321        C323   1.400       .  A
C321        C322   1.402       .  A
C322        H329   1.085       .  S
C323        C324   1.395       .  A
C323        H330   1.084       .  S
C324        C325   1.406       .  A
C324        H331   1.083       .  S
C325        C326   1.409       .  A
C326        H332   1.084       .  S
C333        C334   1.409       .  A
C333        C338   1.404       .  A
C334        C335   1.401       .  A
C334        H343   1.083       .  S
C335        C336   1.403       .  A
C335        H344   1.084       .  S
C336        C342   1.412       .  A
C336        C337   1.416       .  A
C337        C339   1.398       .  A
C337        C338   1.405       .  A
C338        H345   1.085       .  S
C339        C340   1.394       .  A
C339        H346   1.084       .  S
C340        C341   1.407       .  A
C340        H347   1.083       .  S
C341        C342   1.408       .  A
C342        H348   1.084       .  S
C349        C350   1.406       .  A
C349        C354   1.410       .  A
C350        C351   1.394       .  A
C350        H359   1.083       .  S
C351        C352   1.399       .  A
C351        H360   1.083       .  S
C352        C358   1.401       .  A
C352        C353   1.414       .  A
C353        C355   1.406       .  A
C353        C354   1.409       .  A
C354        H361   1.084       .  S
C355        C356   1.402       .  A
C355        H362   1.083       .  S
C356        C357   1.405       .  A
C356        H363   1.083       .  S
C357        C358   1.403       .  A
C358        H364   1.085       .  S
C365        C366   1.405       .  A
C365        C370   1.410       .  A
C366        C367   1.395       .  A
C366        H375   1.083       .  S
C367        C368   1.400       .  A
C367        H376   1.084       .  S
C368        C374   1.401       .  A
C368        C369   1.414       .  A
C369        C371   1.405       .  A
C369        C370   1.407       .  A
C370        H377   1.084       .  S
C371        C372   1.400       .  A
C371        H378   1.084       .  S
C372        C373   1.405       .  A
C372        H379   1.083       .  S
C373        C374   1.403       .  A
C374        H380   1.085       .  S
C381        C382   1.405       .  A
C381        C386   1.408       .  A
C382        C383   1.394       .  A
C382        H391   1.083       .  S
C383        C384   1.399       .  A
C383        H392   1.084       .  S
C384        C390   1.403       .  A
C384        C385   1.415       .  A
C385        C387   1.405       .  A
C385        C386   1.410       .  A
C386        H393   1.084       .  S
C387        C388   1.401       .  A
C387        H394   1.084       .  S
C388        C389   1.405       .  A
C388        H395   1.083       .  S
C389        C390   1.402       .  A
C390        H396   1.085       .  S
