geometry optimzed in LAMMPS
_audit_creation_date              2020-11-30 
_audit_creation_method            'lammps2cif' 
_symmetry_space_group_name_H-M    'P1' 
_symmetry_Int_Tables_number       1 
_symmetry_cell_setting            triclinic 
loop_ 
_symmetry_equiv_pos_as_xyz 
  x,y,z 
_cell_length_a                    35.42502234 
_cell_length_b                    35.64062342589041 
_cell_length_c                    34.54339494271262 
_cell_angle_alpha                 89.99788411467702 
_cell_angle_beta                  90.34936556787837 
_cell_angle_gamma                 89.25153464185207 
loop_ 
_atom_site_label 
_atom_site_type_symbol 
_atom_site_fract_x 
_atom_site_fract_y 
_atom_site_fract_z 
_atom_site_charge 
C1          C  0.86992882  0.41492702  0.45775624    -0.02800
C2          C  0.51820736  0.37771476  0.04448818    -0.02800
C3          C  0.92206356  0.02510222  0.10867050    -0.02800
In4        In  0.70229163  0.25261441  0.44897022     1.36900
C5          C  0.65665367  0.27883589  0.39343697     0.77300
O6          O  0.72587966  0.23251090  0.39355393    -0.61200
O7          O  0.72928475  0.19576387  0.44181842    -0.52100
C8          C  0.75596020  0.29832054  0.47568251     0.70000
O9          O  0.72278280  0.30947231  0.46864884    -0.46900
C10         C  0.65163768  0.21533227  0.49111295     0.74700
O11         O  0.64570417  0.27317902  0.42751636    -0.58800
O12         O  0.67779797  0.19947315  0.47260131    -0.48900
O13         O  0.69172409  0.27510083  0.38915570    -0.55200
C14         C  0.73501844  0.20044830  0.40604839     0.84800
O15         O  0.75973178  0.26327193  0.47526389    -0.57100
O16         O  0.65426646  0.25068790  0.49233267    -0.60400
In17       In  0.73163295  0.02314013  0.25423541     1.36900
C18         C  0.74974496  0.07751968  0.30240634     0.77300
O19         O  0.71131394  0.06552217  0.21209576    -0.61200
O20         O  0.67942230  0.01564207  0.21755525    -0.52100
C21         C  0.79049688  0.00523641  0.20995814     0.70000
O22         O  0.79305968  0.02457462  0.24026288    -0.46900
C23         C  0.69852679  0.98342960  0.30955341     0.74700
O24         O  0.75994364  0.04400539  0.30828622    -0.58800
O25         O  0.68426411  0.01295824  0.29548392    -0.48900
O26         O  0.73209154  0.08309039  0.27105478    -0.55200
C27         C  0.68270797  0.04737919  0.20161560     0.84800
O28         O  0.75859351  0.99068953  0.20468560    -0.57100
O29         O  0.72769941  0.97166557  0.29191627    -0.60400
In30       In  0.53683996  0.20027590  0.21160643     1.36900
C31         C  0.57453755  0.14888442  0.17351028     0.77300
O32         O  0.58577686  0.22557021  0.24164516    -0.61200
O33         O  0.53074842  0.24004358  0.26151449    -0.52100
C34         C  0.52323757  0.25402146  0.15965606     0.70000
O35         O  0.55339758  0.23539682  0.16241329    -0.46900
C36         C  0.50040621  0.14831817  0.25260460     0.74700
O37         O  0.53939647  0.15331865  0.16827826    -0.58800
O38         O  0.53449618  0.15644572  0.25847383    -0.48900
O39         O  0.58997880  0.17224207  0.19582465    -0.55200
C40         C  0.56596000  0.24363677  0.26558411     0.84800
O41         O  0.49726367  0.24285155  0.18180293    -0.57100
O42         O  0.48437207  0.16821493  0.22662644    -0.60400
C43         C  0.52130067  0.13535447  0.55620688    -0.02800
C44         C  0.93868596  0.48769359  0.60074205    -0.02800
C45         C  0.87758590  0.08967312  0.95233637    -0.02800
In46       In  0.76235664  0.47958920  0.76824913     1.36900
C47         C  0.78407922  0.41980468  0.80886004     0.77300
O48         O  0.72794342  0.48621520  0.82135527    -0.61200
O49         O  0.75272861  0.53556410  0.79968407    -0.52100
C50         C  0.81899210  0.49732615  0.72109466     0.70000
O51         O  0.82350709  0.48489521  0.75489681    -0.46900
C52         C  0.70611792  0.45575262  0.72382212     0.74700
O53         O  0.79551706  0.45230078  0.81693330    -0.58800
O54         O  0.70426730  0.48688997  0.74132615    -0.48900
O55         O  0.76413555  0.41804588  0.77866273    -0.55200
C56         C  0.73321632  0.52066142  0.82607976     0.84800
O57         O  0.78531013  0.50658682  0.71342846    -0.57100
O58         O  0.73735642  0.43883757  0.72740909    -0.60400
In59       In  0.53333791  0.31258078  0.72305315     1.36900
C60         C  0.58265313  0.36235635  0.69898628     0.77300
O61         O  0.48315702  0.35164437  0.72997495    -0.61200
O62         O  0.52391793  0.34936287  0.77516482    -0.52100
C63         C  0.51783445  0.26138848  0.66817649     0.70000
O64         O  0.54572240  0.28280104  0.66761500    -0.46900
C65         C  0.55852348  0.26508512  0.77595419     0.74700
O66         O  0.54790081  0.36579631  0.69101915    -0.58800
O67         O  0.52388587  0.27353249  0.77333038    -0.48900
O68         O  0.59188332  0.33239748  0.71620022    -0.55200
C69         C  0.49431306  0.36487748  0.76219339     0.84800
O70         O  0.49390216  0.26985362  0.69385018    -0.57100
O71         O  0.57941505  0.28097110  0.75177400    -0.60400
In72       In  0.70217450  0.25569792  0.94354390     1.36900
C73         C  0.65127679  0.22855308  0.89622947     0.77300
O74         O  0.65955621  0.26681559  0.99140087    -0.61200
O75         O  0.66915641  0.30963195  0.95008593    -0.52100
C76         C  0.75118491  0.20110171  0.96262015     0.70000
O77         O  0.72692040  0.19884176  0.93614402    -0.46900
C78         C  0.74925847  0.30158343  0.90871108     0.74700
O79         O  0.64913390  0.22324774  0.93230167    -0.58800
O80         O  0.74425358  0.30283103  0.94495558    -0.48900
O81         O  0.68040865  0.24522917  0.88498350    -0.55200
C82         C  0.64952629  0.29856482  0.97799198     0.84800
O83         O  0.74727648  0.22979531  0.98394366    -0.57100
O84         O  0.73118335  0.27626342  0.89151229    -0.60400
C85         C  0.42221739  0.50146360  0.83165962    -0.02800
C86         C  0.37144244  0.09691713  0.48118480    -0.02800
C87         C  0.02432537  0.14504658  0.88151513    -0.02800
In88       In  0.26798257  0.49513593  0.66219243     1.36900
C89         C  0.28515649  0.43531593  0.61913564     0.77300
O90         O  0.25916855  0.45069918  0.70570275    -0.61200
O91         O  0.21429901  0.48991924  0.69537099    -0.52100
C92         C  0.31622077  0.52977235  0.70827174     0.70000
O93         O  0.32689688  0.51078975  0.67946579    -0.46900
C94         C  0.22666952  0.53026190  0.60881888     0.74700
O95         O  0.27957223  0.43403642  0.65494200    -0.58800
O96         O  0.21233864  0.51090926  0.63532996    -0.48900
O97         O  0.28725305  0.46812675  0.60585479    -0.55200
C98         C  0.22542365  0.46029625  0.71240595     0.84800
O99         O  0.28130714  0.53642920  0.70919058    -0.57100
O100        O  0.26187667  0.53482375  0.61210369    -0.60400
In101      In  0.05699959  0.31431559  0.72014464     1.36900
C102        C  0.11437983  0.35441395  0.74444313     0.77300
O103        O  0.09874702  0.27215125  0.69943399    -0.61200
O104        O  0.04741087  0.27880190  0.66770584    -0.52100
C105        C  0.02630352  0.26689271  0.76983902     0.70000
O106        O  0.05189432  0.28933700  0.77941756    -0.46900
C107        C  0.02619050  0.37268112  0.68231556     0.74700
O108        O  0.08097416  0.36129749  0.75512911    -0.58800
O109        O  0.05144567  0.35159880  0.66841443    -0.48900
O110        O  0.11853648  0.32471053  0.72498352    -0.55200
C111        C  0.07884699  0.26186748  0.67097794     0.84800
O112        O  0.01255155  0.27241942  0.73662039    -0.57100
O113        O  0.01435929  0.36257019  0.71517485    -0.60400
In114      In  0.19855117  0.25787080  0.49339144     1.36900
C115        C  0.16027735  0.22153214  0.54673680     0.77300
O116        O  0.22116133  0.28273953  0.54723273    -0.61200
O117        O  0.23375453  0.30990812  0.49415694    -0.52100
C118        C  0.25262926  0.21168978  0.46662981     0.70000
O119        O  0.22056812  0.20073595  0.47674364    -0.46900
C120        C  0.14209068  0.29379918  0.45474882     0.74700
O121        O  0.14945084  0.22270214  0.51189222    -0.58800
O122        O  0.15433383  0.30397145  0.48727733    -0.48900
O123        O  0.19198331  0.23596463  0.55300615    -0.55200
C124        C  0.23748203  0.30945562  0.53063826     0.84800
O125        O  0.25540751  0.24680559  0.46523036    -0.57100
O126        O  0.16056356  0.26644560  0.44069134    -0.60400
C127        C  0.14347877  0.60362916  0.48248986    -0.02800
C128        C  0.50774161  0.64136958  0.88029308    -0.02800
C129        C  0.09658514  0.99565886  0.83770440    -0.02800
In130      In  0.29402270  0.78174523  0.48266916     1.36900
C131        C  0.33672713  0.75308898  0.53907775     0.77300
O132        O  0.33418208  0.79040841  0.43313731    -0.61200
O133        O  0.33303138  0.83021243  0.47890911    -0.52100
C134        C  0.25007156  0.72693087  0.45903656     0.70000
O135        O  0.28456064  0.72248379  0.46641418    -0.46900
C136        C  0.24478178  0.83005096  0.51088598     0.74700
O137        O  0.34495693  0.75010517  0.50385665    -0.58800
O138        O  0.25580219  0.83229629  0.47608609    -0.48900
O139        O  0.30512203  0.76847825  0.54542311    -0.55200
C140        C  0.34956484  0.81826850  0.44919015     0.84800
O141        O  0.23989932  0.76061015  0.45486216    -0.57100
O142        O  0.25888718  0.80305087  0.53008736    -0.60400
In143      In  0.47659101  0.80497171  0.71269936     1.36900
C144        C  0.42023888  0.84746530  0.73817671     0.77300
O145        O  0.51285547  0.85687859  0.70629606    -0.61200
O146        O  0.48768267  0.83442433  0.65598192    -0.52100
C147        C  0.51143324  0.75617575  0.76106924     0.70000
O148        O  0.49206742  0.78368857  0.77270048    -0.46900
C149        C  0.44091260  0.76335442  0.66173566     0.74700
O150        O  0.45413866  0.85758220  0.74026879    -0.58800
O151        O  0.47430419  0.77433734  0.65653320    -0.48900
O152        O  0.41601022  0.81379760  0.72805548    -0.55200
C153        C  0.50580509  0.86103473  0.67057077     0.84800
O154        O  0.51754134  0.75658923  0.72524143    -0.57100
O155        O  0.42746271  0.77094742  0.69466847    -0.60400
In156      In  0.24765325  0.98445230  0.65895153     1.36900
C157        C  0.20835765  0.94096997  0.61264684     0.77300
O158        O  0.28662598  0.98416184  0.60793742    -0.61200
O159        O  0.26684760  0.03684540  0.62825868    -0.52100
C160        C  0.20456563  0.01494457  0.71446826     0.70000
O161        O  0.19162523  0.00432794  0.68232256    -0.46900
C162        C  0.29779087  0.94373684  0.69879854     0.74700
O163        O  0.21134826  0.97568973  0.60624561    -0.58800
O164        O  0.30273643  0.97787139  0.69075125    -0.48900
O165        O  0.22100804  0.93017759  0.64511366    -0.55200
C166        C  0.28578121  0.01908599  0.60303463     0.84800
O167        O  0.24000577  0.01428978  0.71632443    -0.57100
O168        O  0.26712052  0.93073043  0.68632147    -0.60400
C169        C  0.65655314  0.59647913  0.95751675    -0.02800
C170        C  0.99212804  0.64056076  0.55102136    -0.02800
C171        C  0.58618245  0.98257775  0.59971659    -0.02800
In172      In  0.76565174  0.98071000  0.76366507     1.36900
C173        C  0.74853244  0.92276256  0.80732333     0.77300
O174        O  0.79032814  0.93268126  0.73199854    -0.61200
O175        O  0.81551223  0.98591236  0.72358854    -0.52100
C176        C  0.70700567  0.99901908  0.71814690     0.70000
O177        O  0.70449120  0.98162419  0.74958849    -0.46900
C178        C  0.80257081  0.01840173  0.81946237     0.74700
O179        O  0.75950884  0.91985210  0.77287296    -0.58800
O180        O  0.81857426  0.99758872  0.79502612    -0.48900
O181        O  0.74381729  0.95599761  0.81893194    -0.55200
C182        C  0.81660700  0.95096347  0.71679590     0.84800
O183        O  0.73904217  0.01312576  0.71272868    -0.57100
O184        O  0.76772635  0.02357673  0.81280920    -0.60400
In185      In  0.99039495  0.80853971  0.72616191     1.36900
C186        C  0.93750670  0.85272406  0.69585461     0.77300
O187        O  0.94472487  0.77699566  0.75345953    -0.61200
O188        O  0.00043540  0.77002030  0.77642325    -0.52100
C189        C  0.00907958  0.75917648  0.67088345     0.70000
O190        O  0.99418276  0.79082918  0.66452700    -0.46900
C191        C  0.02630143  0.86328926  0.76390212     0.74700
O192        O  0.97222771  0.85843760  0.69063249    -0.58800
O193        O  0.99404957  0.85216717  0.77317986    -0.48900
O194        O  0.93010093  0.82316276  0.71442508    -0.55200
C195        C  0.96609239  0.76110089  0.77801897     0.84800
O196        O  0.02095824  0.75511027  0.70505532    -0.57100
O197        O  0.04153347  0.84398713  0.73724289    -0.60400
In198      In  0.82673777  0.75340812  0.94488097     1.36900
C199        C  0.87430873  0.72186092  0.89591953     0.77300
O200        O  0.80429469  0.77316616  0.88894725    -0.61200
O201        O  0.78917548  0.80376108  0.93976784    -0.52100
C202        C  0.77344042  0.70862061  0.97049311     0.70000
O203        O  0.80517929  0.69654807  0.95973257    -0.46900
C204        C  0.87639880  0.79432929  0.98336883     0.74700
O205        O  0.84183486  0.73341569  0.88618236    -0.58800
O206        O  0.85584640  0.80725770  0.95670553    -0.48900
O207        O  0.88128449  0.72337756  0.93170190    -0.55200
C208        C  0.78642713  0.80063956  0.90337579     0.84800
O209        O  0.77110011  0.74359463  0.97386636    -0.57100
O210        O  0.86894861  0.76116329  0.99341008    -0.60400
C211        C  0.36629752  0.41469801  0.97020587    -0.02800
C212        C  0.42430354  0.02070076  0.33210647    -0.02800
C213        C  0.01612233  0.37567227  0.37482294    -0.02800
In214      In  0.03671958  0.19757213  0.23120810     1.36900
C215        C  0.08398000  0.15181930  0.26791241     0.77300
O216        O  0.98358103  0.16574896  0.21854185    -0.61200
O217        O  0.03330125  0.15200934  0.18719869    -0.52100
C218        C  0.00312838  0.25362852  0.26860004     0.70000
O219        O  0.01498215  0.22436856  0.28560666    -0.46900
C220        C  0.07912856  0.23503014  0.18256996     0.74700
O221        O  0.04909063  0.14538412  0.26616382    -0.58800
O222        O  0.04696120  0.22298040  0.17302433    -0.48900
O223        O  0.09292982  0.18420595  0.25701635    -0.55200
C224        C  0.99947329  0.14427582  0.19424411     0.84800
O225        O  0.00449421  0.25218454  0.23230818    -0.57100
O226        O  0.08894766  0.22797010  0.21693515    -0.60400
In227      In  0.24144073  0.01417807  0.17651244     1.36900
C228        C  0.26690709  0.06407562  0.12711371     0.77300
O229        O  0.23387036  0.96043215  0.14257442    -0.61200
O230        O  0.19367182  0.00421291  0.13473255    -0.52100
C231        C  0.29876453  0.99498374  0.22276611     0.70000
O232        O  0.30259482  0.00931401  0.18983410    -0.46900
C233        C  0.19403809  0.04827297  0.22450942     0.74700
O234        O  0.26764286  0.02944394  0.11986474    -0.58800
O235        O  0.19136061  0.01368978  0.21678323    -0.48900
O236        O  0.25500913  0.07271673  0.16028667    -0.55200
C237        C  0.20587370  0.97278414  0.12324702     0.84800
O238        O  0.26552691  0.98504010  0.23006432    -0.57100
O239        O  0.22064112  0.06453162  0.20762367    -0.60400
In240      In  0.21060337  0.24470412  0.00033962     1.36900
C241        C  0.17653146  0.27201006  0.06136446     0.77300
O242        O  0.15566047  0.21351525  0.99927876    -0.61200
O243        O  0.17534629  0.23625137  0.94672287    -0.52100
C244        C  0.25810362  0.29375342  0.97027841     0.70000
O245        O  0.22875422  0.30330760  0.98829884    -0.46900
C246        C  0.24990815  0.18627512  0.02639891     0.74700
O247        O  0.16640108  0.28086840  0.02746690    -0.58800
O248        O  0.23084302  0.18490513  0.99544928    -0.48900
O249        O  0.20710978  0.25363423  0.06362142    -0.55200
C250        C  0.14954098  0.21851785  0.96378581     0.84800
O251        O  0.26113680  0.25907685  0.96388399    -0.57100
O252        O  0.25111374  0.21836958  0.04159065    -0.60400
C253        C  0.49126166  0.87310651  0.38758829    -0.02800
C254        C  0.10453660  0.51779725  0.34054634    -0.02800
C255        C  0.14095938  0.90215036  0.98007684    -0.02800
In256      In  0.47213990  0.70221016  0.21266187     1.36900
C257        C  0.42641525  0.64996652  0.23717213     0.77300
O258        O  0.42555256  0.73506053  0.18611800    -0.61200
O259        O  0.48032885  0.74257684  0.16305761    -0.52100
C260        C  0.48688256  0.74997489  0.27030970     0.70000
O261        O  0.45682117  0.73192302  0.26706407    -0.46900
C262        C  0.51211014  0.65170483  0.17255560     0.74700
O263        O  0.46093302  0.64950977  0.24667219    -0.58800
O264        O  0.47979407  0.66322628  0.16232283    -0.48900
O265        O  0.41553381  0.67824987  0.21804857    -0.55200
C266        C  0.44563002  0.75101263  0.16132430     0.84800
O267        O  0.51187054  0.74086019  0.24592453    -0.57100
O268        O  0.52521429  0.66787947  0.20240214    -0.60400
In269      In  0.31332190  0.74317102  0.98867862     1.36900
C270        C  0.35288091  0.78107446  0.03958041     0.77300
O271        O  0.28271475  0.72122071  0.03979814    -0.61200
O272        O  0.28269401  0.68826212  0.98851808    -0.52100
C273        C  0.26170640  0.79095288  0.95863855     0.70000
O274        O  0.29336292  0.80097215  0.97113220    -0.46900
C275        C  0.37331687  0.70840196  0.95654545     0.74700
O276        O  0.36104164  0.78068332  0.00412464    -0.58800
O277        O  0.36226518  0.70156828  0.99031584    -0.48900
O278        O  0.32237192  0.76522127  0.04808808    -0.55200
C279        C  0.27238804  0.69137884  0.02339884     0.84800
O280        O  0.25852056  0.75586378  0.95616879    -0.57100
O281        O  0.35133394  0.73021378  0.93777140    -0.60400
In282      In  0.25818508  0.51720176  0.16506653     1.36900
C283        C  0.23127590  0.57326782  0.12254709     0.77300
O284        O  0.27773217  0.56008348  0.20620976    -0.61200
O285        O  0.31721892  0.51786200  0.19009914    -0.52100
C286        C  0.21048041  0.48922098  0.21659436     0.70000
O287        O  0.19950274  0.50398293  0.18521678    -0.46900
C288        C  0.29086551  0.48032493  0.10684081     0.74700
O289        O  0.22535079  0.53946204  0.11385544    -0.58800
O290        O  0.26846133  0.46423409  0.12978920    -0.48900
O291        O  0.24585729  0.57806913  0.15547177    -0.55200
C292        C  0.31115282  0.54795472  0.20859850     0.84800
O293        O  0.24562090  0.48369665  0.21867579    -0.57100
O294        O  0.29797159  0.51370901  0.11558032    -0.60400
C295        C  0.59311109  0.52110880  0.10035629    -0.02800
C296        C  0.64365769  0.91075586  0.45345826    -0.02800
C297        C  0.99482142  0.87610330  0.06296675    -0.02800
In298      In  0.75653877  0.54036445  0.27806648     1.36900
C299        C  0.72598804  0.59778833  0.31558899     0.77300
O300        O  0.78708801  0.53521977  0.33493054    -0.61200
O301        O  0.76937481  0.48490365  0.30864038    -0.52100
C302        C  0.70722612  0.51528599  0.22496846     0.70000
O303        O  0.69780051  0.52601980  0.25833191    -0.46900
C304        C  0.81545370  0.56928993  0.24173265     0.74700
O305        O  0.71846065  0.56431032  0.32428604    -0.58800
O306        O  0.81700326  0.53728106  0.25741259    -0.48900
O307        O  0.74595363  0.60137988  0.28582528    -0.55200
C308        C  0.78562238  0.50011865  0.33729720     0.84800
O309        O  0.74239875  0.51346661  0.22037616    -0.57100
O310        O  0.78316068  0.58449130  0.24246949    -0.60400
In311      In  0.81243480  0.75962174  0.44586489     1.36900
C312        C  0.85868941  0.79867341  0.40273443     0.77300
O313        O  0.84674047  0.70624442  0.44447337    -0.61200
O314        O  0.85761472  0.74500095  0.48981559    -0.52100
C315        C  0.76154237  0.80399789  0.47782191     0.70000
O316        O  0.78030623  0.81287507  0.44858919    -0.46900
C317        C  0.76345285  0.71563595  0.41079104     0.74700
O318        O  0.86051164  0.79977858  0.43926811    -0.58800
O319        O  0.76929372  0.71442659  0.44686634    -0.48900
O320        O  0.83164285  0.77996247  0.38919318    -0.55200
C321        C  0.86698639  0.71473813  0.47308638     0.84800
O322        O  0.77204187  0.77407136  0.49444207    -0.57100
O323        O  0.78242486  0.73989847  0.39303158    -0.60400
In324      In  0.99197486  0.71454316  0.24934438     1.36900
C325        C  0.93882396  0.66728730  0.22686052     0.77300
O326        O  0.00282456  0.67342670  0.29814424    -0.61200
O327        O  0.04598821  0.67985919  0.25687050    -0.52100
C328        C  0.00673877  0.76151798  0.19015735     0.70000
O329        O  0.98988610  0.73080596  0.18685598    -0.46900
C330        C  0.96303601  0.76514261  0.29712016     0.74700
O331        O  0.97247876  0.66397106  0.21537589    -0.58800
O332        O  0.99685989  0.75377152  0.30080442    -0.48900
O333        O  0.93248247  0.69524078  0.24833329    -0.55200
C334        C  0.03423078  0.66176526  0.28594019     0.84800
O335        O  0.02188400  0.76573951  0.22302597    -0.57100
O336        O  0.94509019  0.75033760  0.26962379    -0.60400
C337        C  0.92631070  0.80554792  0.38981340    -0.26600
C338        C  0.88894612  0.81215155  0.37747661    -0.14700
C339        C  0.88185575  0.81788266  0.33766487     0.35900
C340        C  0.90951673  0.80762642  0.31105864    -0.26100
C341        C  0.94378624  0.79144368  0.32364995    -0.15300
C342        C  0.95383675  0.79409372  0.36302531     0.37000
N343        N  0.99039299  0.78193885  0.37622555    -0.89600
H344        H  0.93283833  0.80396577  0.42040532     0.18100
H345        H  0.90248607  0.80835819  0.28047799     0.18100
N346        N  0.84633314  0.83201127  0.32339582    -0.88600
H347        H  0.98698773  0.75977879  0.39563992     0.35500
H348        H  0.00266598  0.80416963  0.39126549     0.40600
H349        H  0.84031268  0.85731574  0.33748447     0.40200
H350        H  0.82495046  0.81306790  0.32941664     0.35100
C351        C  0.71972305  0.62427844  0.38118732    -0.26600
C352        C  0.71788136  0.62997978  0.34103444    -0.14700
C353        C  0.71991217  0.66668694  0.32634171     0.35900
C354        C  0.73054837  0.69592430  0.35093634    -0.26100
C355        C  0.73914369  0.68886100  0.38999414    -0.15300
C356        C  0.73040822  0.65355715  0.40605457     0.37000
N357        N  0.73593269  0.64649647  0.44667810    -0.89600
H358        H  0.71732307  0.59612214  0.39268302     0.18100
H359        H  0.73533082  0.72342489  0.33864278     0.18100
N360        N  0.71405194  0.67375710  0.28590992    -0.88600
H361        H  0.72978842  0.61861814  0.45335964     0.35500
H362        H  0.71634084  0.66312119  0.46160987     0.40600
H363        H  0.73865880  0.68538569  0.27477604     0.40200
H364        H  0.69229008  0.69369937  0.28311368     0.35100
C365        C  0.84239261  0.62676579  0.21377549    -0.26600
C366        C  0.84865455  0.58988387  0.22709750    -0.14700
C367        C  0.88643674  0.57681595  0.23179928     0.35900
C368        C  0.91633686  0.60169437  0.22638135    -0.26100
C369        C  0.90923444  0.63975740  0.21856012    -0.15300
C370        C  0.87215249  0.65196327  0.21065813     0.37000
N371        N  0.86441467  0.69052680  0.20153103    -0.89600
H372        H  0.81390135  0.63730531  0.20904436     0.18100
H373        H  0.94494063  0.59214025  0.23246725     0.18100
N374        N  0.89541981  0.53955156  0.24469829    -0.88600
H375        H  0.84598058  0.70129379  0.22242417     0.35500
H376        H  0.85056253  0.69157305  0.17473574     0.40600
H377        H  0.88272029  0.52045298  0.22589845     0.40200
H378        H  0.88480772  0.53595188  0.27260289     0.35100
C379        C  0.97349214  0.81732077  0.10243122    -0.26600
C380        C  0.99877323  0.84786654  0.09904831    -0.14700
C381        C  0.02465128  0.85180203  0.13104743     0.35900
C382        C  0.02770765  0.82323824  0.15983397    -0.26100
C383        C  0.00515131  0.79093719  0.15894082    -0.15300
C384        C  0.97705326  0.78908178  0.13018376     0.37000
N385        N  0.95032483  0.75917973  0.12971162    -0.89600
H386        H  0.94856539  0.81529714  0.08459130     0.18100
H387        H  0.04785270  0.82655581  0.18326079     0.18100
N388        N  0.04811021  0.88412990  0.13592454    -0.88600
H389        H  0.95199187  0.74573346  0.10284484     0.35500
H390        H  0.92321276  0.77080047  0.13239649     0.40600
H391        H  0.04452251  0.90342606  0.11345188     0.40200
H392        H  0.07624026  0.87516323  0.13519335     0.35100
C393        C  0.66512951  0.84146206  0.46269323    -0.26600
C394        C  0.67193622  0.88004848  0.46791346    -0.14700
C395        C  0.70541401  0.89032565  0.48845235     0.35900
C396        C  0.73268783  0.86308421  0.49784786    -0.26100
C397        C  0.72760077  0.82564616  0.48766494    -0.15300
C398        C  0.69236759  0.81426751  0.47253987     0.37000
N399        N  0.68448173  0.77572295  0.46360069    -0.89600
H400        H  0.63941514  0.83184575  0.44919433     0.18100
H401        H  0.75971739  0.87191845  0.50930390     0.18100
N402        N  0.71346458  0.92891187  0.49636849    -0.88600
H403        H  0.66042509  0.76830595  0.47917587     0.35500
H404        H  0.70598075  0.75792506  0.47349620     0.40600
H405        H  0.73871962  0.93576968  0.48273393     0.40200
H406        H  0.71740791  0.93182803  0.52623813     0.35100
C407        C  0.64069603  0.51286728  0.20278309    -0.26600
C408        C  0.67890304  0.50867799  0.19356750    -0.14700
C409        C  0.68855682  0.50231556  0.15431194     0.35900
C410        C  0.66032051  0.50256222  0.12549243    -0.26100
C411        C  0.62209990  0.51103569  0.13390087    -0.15300
C412        C  0.61252507  0.51407242  0.17417325     0.37000
N413        N  0.57410194  0.51914736  0.18646668    -0.89600
H414        H  0.63238132  0.51687412  0.23265864     0.18100
H415        H  0.66907788  0.49795706  0.09590981     0.18100
N416        N  0.72687170  0.49700849  0.14229888    -0.88600
H417        H  0.57215262  0.54431224  0.20191371     0.35500
H418        H  0.56768083  0.49775497  0.20596531     0.40600
H419        H  0.73851343  0.47415747  0.15736899     0.40200
H420        H  0.74200580  0.52117080  0.14891689     0.35100
C421        C  0.23751853  0.59629917  0.05566653    -0.26600
C422        C  0.22815363  0.60415176  0.09427256    -0.14700
C423        C  0.22584398  0.64175833  0.10666728     0.35900
C424        C  0.23769603  0.67035974  0.08170838    -0.26100
C425        C  0.25172386  0.66198575  0.04464800    -0.15300
C426        C  0.24949840  0.62483871  0.03080879     0.37000
N427        N  0.26172486  0.61542027  0.99253808    -0.89600
H428        H  0.23921485  0.56746265  0.04577090     0.18100
H429        H  0.23797611  0.69903880  0.09210029     0.18100
N430        N  0.21339193  0.65047405  0.14520054    -0.88600
H431        H  0.23922043  0.60277986  0.97805305     0.35500
H432        H  0.28371078  0.59566122  0.99479996     0.40600
H433        H  0.18529715  0.64208070  0.14733108     0.40200
H434        H  0.21345639  0.67945407  0.14984215     0.35100
C435        C  0.51102079  0.59350222  0.13195394    -0.26600
C436        C  0.53187059  0.62053591  0.15197679    -0.14700
C437        C  0.57087442  0.61591323  0.15411087     0.35900
C438        C  0.58818047  0.58488890  0.13658130    -0.26100
C439        C  0.56848032  0.55634918  0.11560539    -0.15300
C440        C  0.52800300  0.56165038  0.11468624     0.37000
N441        N  0.50199847  0.53602957  0.09786242    -0.89600
H442        H  0.48053322  0.59641473  0.13073423     0.18100
H443        H  0.61753254  0.58165121  0.14416131     0.18100
N444        N  0.59344415  0.64227876  0.17497963    -0.88600
H445        H  0.50454348  0.50960224  0.11057500     0.35500
H446        H  0.50444392  0.53621983  0.06782649     0.40600
H447        H  0.61337172  0.65313067  0.15593185     0.40200
H448        H  0.60794688  0.62784198  0.19696031     0.35100
C449        C  0.36335619  0.62866937  0.25413627    -0.26600
C450        C  0.40041885  0.61908168  0.24422637    -0.14700
C451        C  0.40872393  0.58244836  0.23096681     0.35900
C452        C  0.37909263  0.55785705  0.22330617    -0.26100
C453        C  0.34129322  0.56945609  0.22808330    -0.15300
C454        C  0.33371361  0.60451410  0.24618650     0.37000
N455        N  0.29628379  0.61768473  0.25470816    -0.89600
H456        H  0.35691802  0.65665245  0.26475639     0.18100
H457        H  0.38560825  0.53084912  0.21038740     0.18100
N458        N  0.44644588  0.57069938  0.22175611    -0.88600
H459        H  0.28252973  0.59731769  0.27098998     0.35500
H460        H  0.28159995  0.62281287  0.22889485     0.40600
H461        H  0.46311752  0.57334060  0.24664645     0.40200
H462        H  0.45694376  0.58850098  0.20044831     0.35100
C463        C  0.39218894  0.79002222  0.13834030    -0.26600
C464        C  0.42824431  0.77480541  0.13116576    -0.14700
C465        C  0.44235674  0.77489345  0.09315642     0.35900
C466        C  0.41820754  0.78497047  0.06252441    -0.26100
C467        C  0.37987443  0.79263108  0.06948857    -0.15300
C468        C  0.36764210  0.79848711  0.10764303     0.37000
N469        N  0.32937820  0.80956797  0.11525677    -0.89600
H470        H  0.38151404  0.79131567  0.16766221     0.18100
H471        H  0.42808459  0.78101442  0.03314217     0.18100
N472        N  0.47938104  0.76044669  0.08501569    -0.88600
H473        H  0.32983253  0.83418079  0.13170465     0.35500
H474        H  0.31699172  0.78864509  0.13197980     0.40600
H475        H  0.49408489  0.78109704  0.07008808     0.40200
H476        H  0.47664618  0.73726570  0.06667384     0.35100
C477        C  0.06742050  0.89927524  0.98062623    -0.26600
C478        C  0.10251108  0.88713852  0.99614168    -0.14700
C479        C  0.10104126  0.86619086  0.03114910     0.35900
C480        C  0.06650298  0.86057272  0.05019652    -0.26100
C481        C  0.03258204  0.87887670  0.03865367    -0.15300
C482        C  0.03356072  0.89690840  0.00172632     0.37000
N483        N  0.00016498  0.91359420  0.98523494    -0.89600
H484        H  0.06584187  0.91340415  0.95301004     0.18100
H485        H  0.06744001  0.84209565  0.07475848     0.18100
N486        N  0.13495912  0.85127901  0.04838622    -0.88600
H487        H  0.99494025  0.90062431  0.95853427     0.35500
H488        H  0.00525977  0.94190882  0.98001603     0.40600
H489        H  0.13206384  0.82227566  0.05140022     0.40200
H490        H  0.13767217  0.86277231  0.07610931     0.35100
C491        C  0.19280573  0.80536873  0.96053820    -0.26600
C492        C  0.22951665  0.81780707  0.95316597    -0.14700
C493        C  0.23474308  0.85648323  0.94657813     0.35900
C494        C  0.20453124  0.88167710  0.95167788    -0.26100
C495        C  0.16923782  0.87021094  0.96664154    -0.15300
C496        C  0.16239388  0.83077910  0.96631912     0.37000
N497        N  0.12501874  0.81623757  0.97058009    -0.89600
H498        H  0.18802866  0.77554407  0.96352703     0.18100
H499        H  0.20987472  0.91133279  0.94793163     0.18100
N500        N  0.27056774  0.87137917  0.93585364    -0.88600
H501        H  0.12537627  0.78686280  0.97021523     0.35500
H502        H  0.10912903  0.82486176  0.94657044     0.40600
H503        H  0.28041385  0.85680298  0.91159606     0.40200
H504        H  0.28966072  0.86767730  0.95872848     0.35100
C505        C  0.08343139  0.61141061  0.28146600    -0.26600
C506        C  0.05385139  0.62766258  0.30218104    -0.14700
C507        C  0.04259092  0.60983096  0.33663169     0.35900
C508        C  0.05861490  0.57476072  0.34741788    -0.26100
C509        C  0.08595946  0.55571185  0.32454863    -0.15300
C510        C  0.10081661  0.57749828  0.29298691     0.37000
N511        N  0.13552853  0.56804288  0.27409071    -0.89600
H512        H  0.09419803  0.62575332  0.25624214     0.18100
H513        H  0.04970463  0.56236947  0.37443768     0.18100
N514        N  0.01570488  0.62769515  0.36154349    -0.88600
H515        H  0.15457831  0.58979804  0.27858738     0.35500
H516        H  0.13031378  0.56602549  0.24432111     0.40600
H517        H  0.02894109  0.63225737  0.38822957     0.40200
H518        H  0.99339279  0.60927408  0.36582964     0.35100
C519        C  0.17199257  0.49671602  0.31807204    -0.26600
C520        C  0.13311557  0.50190885  0.31012044    -0.14700
C521        C  0.11997386  0.49077315  0.27280986     0.35900
C522        C  0.14576885  0.48288448  0.24311800    -0.26100
C523        C  0.18471429  0.48415586  0.24989604    -0.15300
C524        C  0.19774189  0.48839128  0.28833593     0.37000
N525        N  0.23729353  0.48648523  0.29707716    -0.89600
H526        H  0.18301759  0.50013122  0.34706778     0.18100
H527        H  0.13520817  0.47825340  0.21402071     0.18100
N528        N  0.08037389  0.49039622  0.26415065    -0.88600
H529        H  0.24167000  0.46550831  0.31780951     0.35500
H530        H  0.24515610  0.51209657  0.30933160     0.40600
H531        H  0.07349558  0.46335689  0.25496705     0.40200
H532        H  0.07500133  0.50894208  0.24127738     0.35100
C533        C  0.52336205  0.81873995  0.34623155    -0.26600
C534        C  0.49110127  0.84216152  0.35378168    -0.14700
C535        C  0.45723002  0.83235890  0.33258960     0.35900
C536        C  0.45765975  0.80253456  0.30617078    -0.26100
C537        C  0.49008901  0.78114513  0.29866441    -0.15300
C538        C  0.52337829  0.78963955  0.31879829     0.37000
N539        N  0.55726965  0.76789591  0.31363856    -0.89600
H540        H  0.54883821  0.82047984  0.36318633     0.18100
H541        H  0.43172479  0.79619945  0.29078663     0.18100
N542        N  0.42128478  0.85131986  0.33641803    -0.88600
H543        H  0.56575760  0.77036967  0.28485353     0.35500
H544        H  0.55135732  0.73975039  0.31927301     0.40600
H545        H  0.42189074  0.87516891  0.35340695     0.40200
H546        H  0.40245054  0.83270342  0.34915782     0.35100
C547        C  0.57532719  0.88360784  0.46234415    -0.26600
C548        C  0.60558909  0.89281417  0.43755321    -0.14700
C549        C  0.59836704  0.88648914  0.39739827     0.35900
C550        C  0.56135657  0.88444870  0.38373781    -0.26100
C551        C  0.53084272  0.87565142  0.40800195    -0.15300
C552        C  0.53930430  0.87354982  0.44869950     0.37000
N553        N  0.51276116  0.86353196  0.47804013    -0.89600
H554        H  0.57866715  0.88352272  0.49318873     0.18100
H555        H  0.55695699  0.88574865  0.35267879     0.18100
N556        N  0.62731429  0.87642597  0.37032656    -0.88600
H557        H  0.50503576  0.83580388  0.47530966     0.35500
H558        H  0.48918234  0.88153190  0.47817714     0.40600
H559        H  0.65174832  0.86687500  0.38437594     0.40200
H560        H  0.63258244  0.89891616  0.35192985     0.35100
C561        C  0.15398892  0.96443359  0.07483048    -0.26600
C562        C  0.18995586  0.95400564  0.08816514    -0.14700
C563        C  0.21069401  0.92787590  0.06608810     0.35900
C564        C  0.19528889  0.91303281  0.03198216    -0.26100
C565        C  0.15917445  0.92380352  0.01648939    -0.15300
C566        C  0.13801918  0.94919812  0.04084150     0.37000
N567        N  0.09873152  0.95690043  0.03432158    -0.89600
H568        H  0.13709970  0.98379947  0.09189762     0.18100
H569        H  0.21223533  0.89091345  0.01985939     0.18100
N570        N  0.24791279  0.91563567  0.07720542    -0.88600
H571        H  0.09448926  0.98603044  0.03370611     0.35500
H572        H  0.08423797  0.94676151  0.05828152     0.40600
H573        H  0.24658685  0.90247746  0.10418401     0.40200
H574        H  0.26532118  0.93904136  0.07911307     0.35100
C575        C  0.28226406  0.15848771  0.08321527    -0.26600
C576        C  0.26585966  0.15294864  0.04647185    -0.14700
C577        C  0.25930891  0.11579110  0.03371093     0.35900
C578        C  0.26461247  0.08600021  0.05953026    -0.26100
C579        C  0.27529247  0.09264940  0.09801167    -0.15300
C580        C  0.28671398  0.12866594  0.10930263     0.37000
N581        N  0.30070277  0.13509372  0.14787738    -0.89600
H582        H  0.28875502  0.18659410  0.09292066     0.18100
H583        H  0.25652985  0.05807211  0.05053727     0.18100
N584        N  0.24517290  0.10741556  0.99579558    -0.88600
H585        H  0.30756070  0.16328598  0.15167954     0.35500
H586        H  0.32585418  0.11965268  0.15103287     0.40600
H587        H  0.26294359  0.11952013  0.97536399     0.40200
H588        H  0.21792111  0.11861095  0.99278401     0.35100
C589        C  0.10266039  0.08465451  0.26665147    -0.26600
C590        C  0.11274844  0.12201447  0.27420399    -0.14700
C591        C  0.15128967  0.13122628  0.27534693     0.35900
C592        C  0.17827252  0.10498721  0.26276606    -0.26100
C593        C  0.16740214  0.06957286  0.24917581    -0.15300
C594        C  0.12976730  0.05836269  0.25393647     0.37000
N595        N  0.11836088  0.02150555  0.24275155    -0.89600
H596        H  0.07318798  0.07687557  0.26620144     0.18100
H597        H  0.20746755  0.11348120  0.26076047     0.18100
N598        N  0.16285121  0.16815108  0.28624717    -0.88600
H599        H  0.09808005  0.02407972  0.22081776     0.35500
H600        H  0.10571615  0.00888018  0.26663870     0.40600
H601        H  0.17710123  0.17998336  0.26288599     0.40200
H602        H  0.18189427  0.16560125  0.30935611     0.35100
C603        C  0.16689898  0.26720412  0.13164232    -0.26600
C604        C  0.15193078  0.27654540  0.09518215    -0.14700
C605        C  0.11243944  0.27938314  0.09031636     0.35900
C606        C  0.08880839  0.26808089  0.12034899    -0.26100
C607        C  0.10401101  0.25427714  0.15518881    -0.15300
C608        C  0.14333531  0.25583680  0.16162595     0.37000
N609        N  0.15979639  0.24328089  0.19741918    -0.89600
H610        H  0.19721400  0.26532032  0.13588993     0.18100
H611        H  0.05855339  0.26806278  0.11549707     0.18100
N612        N  0.09618850  0.29072618  0.05400841    -0.88600
H613        H  0.17549092  0.26527242  0.20902496     0.35500
H614        H  0.17836353  0.22099157  0.19147734     0.40600
H615        H  0.07839288  0.31383360  0.05900492     0.40200
H616        H  0.07972200  0.26876603  0.04352300     0.35100
C617        C  0.01993141  0.44846588  0.35792465    -0.26600
C618        C  0.03826821  0.41300625  0.36332270    -0.14700
C619        C  0.07849048  0.41409189  0.35980061     0.35900
C620        C  0.09731401  0.44835813  0.35649574    -0.26100
C621        C  0.07866442  0.48274049  0.34778446    -0.15300
C622        C  0.03880267  0.48121292  0.34589836     0.37000
N623        N  0.01661078  0.51196334  0.33146839    -0.89600
H624        H  0.99050010  0.45242284  0.36236980     0.18100
H625        H  0.12782132  0.44738764  0.35837013     0.18100
N626        N  0.10119239  0.38062922  0.35777719    -0.88600
H627        H  0.99731646  0.51998333  0.35280919     0.35500
H628        H  0.00131003  0.50260222  0.30743079     0.40600
H629        H  0.11549729  0.38047473  0.33139772     0.40200
H630        H  0.12140152  0.38144661  0.37996380     0.35100
C631        C  0.98200861  0.31794026  0.35127253    -0.26600
C632        C  0.00269439  0.35030885  0.34041009    -0.14700
C633        C  0.01212820  0.35355254  0.30038972     0.35900
C634        C  0.00698119  0.32267202  0.27567486    -0.26100
C635        C  0.99352666  0.28839598  0.28966370    -0.15300
C636        C  0.97863458  0.28690999  0.32691393     0.37000
N637        N  0.96231063  0.25302801  0.34105668    -0.89600
H638        H  0.97267134  0.31444277  0.38080583     0.18100
H639        H  0.01725769  0.32438064  0.24623733     0.18100
N640        N  0.02785520  0.38642103  0.28350593    -0.88600
H641        H  0.93474788  0.25922406  0.34989410     0.35500
H642        H  0.97776671  0.24423943  0.36537435     0.40600
H643        H  0.01064810  0.40966508  0.28964674     0.40200
H644        H  0.05521953  0.39009081  0.29367438     0.35100
C645        C  0.35553810  0.00082142  0.31636248    -0.26600
C646        C  0.39217582  0.00919969  0.30267714    -0.14700
C647        C  0.39712431  0.00824125  0.26111027     0.35900
C648        C  0.36657138  0.00095963  0.23675352    -0.26100
C649        C  0.33052756  0.99417300  0.25090523    -0.15300
C650        C  0.32514929  0.99334628  0.29117260     0.37000
N651        N  0.28847323  0.98672072  0.30680017    -0.89600
H652        H  0.34940038  0.00105630  0.34686432     0.18100
H653        H  0.37125531  0.00113927  0.20575775     0.18100
N654        N  0.43290165  0.01204772  0.24185095    -0.88600
H655        H  0.28064336  0.01000798  0.32346960     0.35500
H656        H  0.29047783  0.96345528  0.32517657     0.40600
H657        H  0.45621860  0.01029392  0.26021043     0.40200
H658        H  0.43305592  0.03743319  0.22668357     0.35100
C659        C  0.47297756  0.91897313  0.33161954    -0.26600
C660        C  0.48352951  0.91433508  0.37051958    -0.14700
C661        C  0.48632280  0.94912223  0.39149406     0.35900
C662        C  0.47165703  0.98290155  0.37576008    -0.26100
C663        C  0.45010524  0.98432217  0.34112980    -0.15300
C664        C  0.45255445  0.95049624  0.31840615     0.37000
N665        N  0.43406293  0.94580371  0.28200485    -0.89600
H666        H  0.47660622  0.89652223  0.31108651     0.18100
H667        H  0.47414229  0.00804028  0.39317604     0.18100
N668        N  0.50354145  0.95228506  0.42885565    -0.88600
H669        H  0.45430840  0.93884440  0.26115807     0.35500
H670        H  0.41526623  0.92353077  0.28416170     0.40600
H671        H  0.53233552  0.94607624  0.42697996     0.40200
H672        H  0.49004329  0.93496313  0.44842574     0.35100
C673        C  0.31120374  0.48539759  0.03833384    -0.26600
C674        C  0.30685675  0.46299048  0.07148746    -0.14700
C675        C  0.31865453  0.42530029  0.07016112     0.35900
C676        C  0.33579549  0.41140317  0.03678665    -0.26100
C677        C  0.34285183  0.43407997  0.00361688    -0.15300
C678        C  0.32795336  0.47133997  0.00427582     0.37000
N679        N  0.32777100  0.49475116  0.97064417    -0.89600
H680        H  0.30086086  0.51416593  0.03860306     0.18100
H681        H  0.34587305  0.38258266  0.03755418     0.18100
N682        N  0.31552568  0.40087040  0.10288557    -0.88600
H683        H  0.29975267  0.50188818  0.96396208     0.35500
H684        H  0.34184919  0.51950679  0.97750594     0.40600
H685        H  0.28700018  0.39821160  0.10970991     0.40200
H686        H  0.32959922  0.41296801  0.12637821     0.35100
C687        C  0.35206653  0.34328139  0.96796047    -0.26600
C688        C  0.34053827  0.38071856  0.96051276    -0.14700
C689        C  0.30153747  0.38715064  0.95123257     0.35900
C690        C  0.27598400  0.35759700  0.95128983    -0.26100
C691        C  0.28750160  0.32119361  0.96076558    -0.15300
C692        C  0.32616812  0.31381841  0.96821506     0.37000
N693        N  0.33953956  0.27727535  0.97943327    -0.89600
H694        H  0.38060166  0.33665794  0.97683856     0.18100
H695        H  0.24633581  0.36365303  0.94589680     0.18100
N696        N  0.28720181  0.42428505  0.94366917    -0.88600
H697        H  0.33351517  0.25846671  0.95708752     0.35500
H698        H  0.32521554  0.26903007  0.00433654     0.40600
H699        H  0.26679250  0.43062151  0.96453147     0.40200
H700        H  0.27360739  0.42443925  0.91674354     0.35100
C701        C  0.90186520  0.85460626  0.00616294    -0.26600
C702        C  0.90759093  0.81627716  0.99966005    -0.14700
C703        C  0.94431642  0.80104598  0.00382467     0.35900
C704        C  0.97318708  0.82333741  0.01857930    -0.26100
C705        C  0.96546978  0.85961841  0.03352384    -0.15300
C706        C  0.93046734  0.87675805  0.02200995     0.37000
N707        N  0.92409961  0.91648608  0.02369056    -0.89600
H708        H  0.87482930  0.86754853  0.99906140     0.18100
H709        H  0.00067719  0.81038957  0.02334062     0.18100
N710        N  0.95314360  0.76304050  0.99357871    -0.88600
H711        H  0.89927629  0.92154416  0.03917632     0.35500
H712        H  0.91955346  0.92619881  0.99547468     0.40600
H713        H  0.94561413  0.75908739  0.96463298     0.40200
H714        H  0.93713142  0.74520523  0.01078813     0.35100
C715        C  0.91655462  0.71820886  0.79858246    -0.26600
C716        C  0.95068621  0.73584480  0.80728719    -0.14700
C717        C  0.96452899  0.73559519  0.84563786     0.35900
C718        C  0.94061996  0.72361678  0.87532540    -0.26100
C719        C  0.90330282  0.71342308  0.86689145    -0.15300
C720        C  0.89251230  0.70728104  0.82821460     0.37000
N721        N  0.85575416  0.69344960  0.81896950    -0.89600
H722        H  0.90661392  0.71671940  0.76887947     0.18100
H723        H  0.94941388  0.72712509  0.90513060     0.18100
N724        N  0.00059339  0.75150488  0.85475198    -0.88600
H725        H  0.85914457  0.66934385  0.80203406     0.35500
H726        H  0.84157342  0.71369859  0.80224281     0.40600
H727        H  0.02128400  0.73425627  0.84229611     0.40200
H728        H  0.00552108  0.75095871  0.88463328     0.35100
C729        C  0.91493158  0.91854752  0.69130693    -0.26600
C730        C  0.90783971  0.88031666  0.68537364    -0.14700
C731        C  0.87066623  0.86866839  0.67823760     0.35900
C732        C  0.84076983  0.89424000  0.68381512    -0.26100
C733        C  0.84755558  0.93107573  0.69645020    -0.15300
C734        C  0.88512953  0.94406036  0.69726964     0.37000
N735        N  0.89413399  0.98185854  0.70749022    -0.89600
H736        H  0.94362125  0.92788294  0.69584167     0.18100
H737        H  0.81200787  0.88442088  0.68158307     0.18100
N738        N  0.86342436  0.83038530  0.66776493    -0.88600
H739        H  0.88496223  0.98714011  0.73567473     0.35500
H740        H  0.87994215  0.99998731  0.68837075     0.40600
H741        H  0.87606707  0.82551783  0.64092890     0.40200
H742        H  0.83447288  0.82630188  0.66381285     0.35100
C743        C  0.75346854  0.85448912  0.81572977    -0.26600
C744        C  0.74584376  0.88962744  0.83238776    -0.14700
C745        C  0.74325777  0.89279698  0.87291590     0.35900
C746        C  0.75347364  0.86202946  0.89607640    -0.26100
C747        C  0.76621794  0.82836705  0.87918984    -0.15300
C748        C  0.76373379  0.82372473  0.83867309     0.37000
N749        N  0.77374199  0.78857327  0.82075488    -0.89600
H750        H  0.75420910  0.85160147  0.78451245     0.18100
H751        H  0.75398870  0.86545575  0.92724718     0.18100
N752        N  0.73252844  0.92761673  0.89069334    -0.88600
H753        H  0.77154548  0.79041135  0.79062003     0.35500
H754        H  0.75397869  0.76881843  0.82954402     0.40600
H755        H  0.75463241  0.93611377  0.90872075     0.40200
H756        H  0.70894965  0.92281683  0.90799019     0.35100
C757        C  0.61902504  0.98984158  0.53204252    -0.26600
C758        C  0.60834905  0.96709221  0.56363240    -0.14700
C759        C  0.62141693  0.92973463  0.56196907     0.35900
C760        C  0.63043357  0.91375350  0.52643639    -0.26100
C761        C  0.63411363  0.93464604  0.49148061    -0.15300
C762        C  0.63282727  0.97465006  0.49696288     0.37000
N763        N  0.64823640  0.00119443  0.47059783    -0.89600
H764        H  0.61715202  0.02008234  0.53445342     0.18100
H765        H  0.63465052  0.88363747  0.52687736     0.18100
N766        N  0.62462987  0.90707847  0.59599723    -0.88600
H767        H  0.62814758  0.00959461  0.44988380     0.35500
H768        H  0.67406052  0.99219170  0.45969602     0.40600
H769        H  0.65295069  0.89891958  0.59913826     0.40200
H770        H  0.60889915  0.88275269  0.59207016     0.35100
C771        C  0.64555457  0.01380418  0.62738505    -0.26600
C772        C  0.61749158  0.98610220  0.63220310    -0.14700
C773        C  0.62198919  0.96201859  0.66522237     0.35900
C774        C  0.64943460  0.96949816  0.69329366    -0.26100
C775        C  0.67586487  0.99791506  0.68897765    -0.15300
C776        C  0.67447501  0.01985567  0.65508655     0.37000
N777        N  0.70245054  0.04794062  0.64865009    -0.89600
H778        H  0.64469060  0.03123098  0.60171845     0.18100
H779        H  0.65147531  0.95068984  0.71791930     0.18100
N780        N  0.60145417  0.92801285  0.67004648    -0.88600
H781        H  0.69908600  0.06840995  0.67001130     0.35500
H782        H  0.69777610  0.06132957  0.62203371     0.40600
H783        H  0.58832063  0.92901109  0.69708627     0.40200
H784        H  0.62071567  0.90555156  0.67109414     0.35100
C785        C  0.96695366  0.68484033  0.49842007    -0.26600
C786        C  0.96070428  0.65224685  0.52093863    -0.14700
C787        C  0.92456890  0.63503758  0.51655493     0.35900
C788        C  0.89429536  0.65584901  0.50030496    -0.26100
C789        C  0.89979919  0.69161379  0.48515602    -0.15300
C790        C  0.93690678  0.70462222  0.48107943     0.37000
N791        N  0.94453705  0.73893769  0.46139195    -0.89600
H792        H  0.99456652  0.69753101  0.49812042     0.18100
H793        H  0.86611777  0.64435570  0.50003174     0.18100
N794        N  0.91830711  0.59682308  0.52754553    -0.88600
H795        H  0.93029729  0.76072813  0.47560380     0.35500
H796        H  0.93354629  0.73667992  0.43334263     0.40600
H797        H  0.93420842  0.57995147  0.50893188     0.40200
H798        H  0.89006781  0.58943973  0.52331420     0.35100
C799        C  0.02139565  0.66663971  0.61462005    -0.26600
C800        C  0.99457325  0.67146201  0.58409808    -0.14700
C801        C  0.97010193  0.70384775  0.58759863     0.35900
C802        C  0.97785597  0.73185843  0.61453924    -0.26100
C803        C  0.00694487  0.72858838  0.64160729    -0.15300
C804        C  0.02819835  0.69493628  0.64256050     0.37000
N805        N  0.05717855  0.68956683  0.67111867    -0.89600
H806        H  0.03852398  0.64123608  0.61563998     0.18100
H807        H  0.95879755  0.75590981  0.61559574     0.18100
N808        N  0.93497582  0.70792274  0.56726601    -0.88600
H809        H  0.08269433  0.68506776  0.65668717     0.35500
H810        H  0.05112866  0.66522164  0.68666955     0.40600
H811        H  0.93478969  0.73397244  0.55323368     0.40200
H812        H  0.91308892  0.70863580  0.58740896     0.35100
C813        C  0.67690316  0.66637135  0.95687624    -0.26600
C814        C  0.68402515  0.62876834  0.96792655    -0.14700
C815        C  0.72024949  0.61997483  0.98429360     0.35900
C816        C  0.74780934  0.64732706  0.98762338    -0.26100
C817        C  0.74101622  0.68373513  0.97479221    -0.15300
C818        C  0.70515476  0.69358406  0.95974786     0.37000
N819        N  0.69823922  0.73039331  0.94439484    -0.89600
H820        H  0.65057065  0.67453991  0.94318593     0.18100
H821        H  0.77545016  0.63950063  0.99888638     0.18100
N822        N  0.72959256  0.58282616  0.99709227    -0.88600
H823        H  0.67499067  0.74201730  0.95875946     0.35500
H824        H  0.69109182  0.72772330  0.91510335     0.40600
H825        H  0.73724315  0.58398181  0.02634735     0.40200
H826        H  0.75305082  0.57328175  0.98152250     0.35100
C827        C  0.62555477  0.54087296  0.99285891    -0.26600
C828        C  0.64427538  0.57541372  0.99559779    -0.14700
C829        C  0.64920324  0.58962209  0.03414028     0.35900
C830        C  0.63685718  0.56920959  0.06618395    -0.26100
C831        C  0.61614352  0.53587830  0.06339998    -0.15300
C832        C  0.61870371  0.51871762  0.02602006     0.37000
N833        N  0.62392808  0.47898018  0.02136064    -0.89600
H834        H  0.62147459  0.52853918  0.96453662     0.18100
H835        H  0.64505746  0.58033907  0.09351185     0.18100
N836        N  0.66408550  0.62609171  0.04211510    -0.88600
H837        H  0.60317069  0.46878986  0.00290360     0.35500
H838        H  0.62407053  0.46466565  0.04778809     0.40600
H839        H  0.68754444  0.62295207  0.06040908     0.40200
H840        H  0.64372829  0.64181579  0.05704786     0.35100
C841        C  0.51714163  0.92997501  0.66617370    -0.26600
C842        C  0.51666168  0.89481790  0.64802994    -0.14700
C843        C  0.52558436  0.89316056  0.60839085     0.35900
C844        C  0.54262018  0.92416766  0.59051893    -0.26100
C845        C  0.55313404  0.95610834  0.61230876    -0.15300
C846        C  0.53410045  0.96099477  0.64822341     0.37000
N847        N  0.53583833  0.99566762  0.66890325    -0.89600
H848        H  0.50650989  0.93290549  0.69538867     0.18100
H849        H  0.54997571  0.92166007  0.56030352     0.18100
N850        N  0.51896103  0.85968719  0.58657823    -0.88600
H851        H  0.54868472  0.99072900  0.69578144     0.35500
H852        H  0.50818766  0.00500869  0.67383418     0.40600
H853        H  0.54470231  0.85033764  0.57521139     0.40200
H854        H  0.50108930  0.86662471  0.56339737     0.35100
C855        C  0.35130875  0.85923183  0.73807277    -0.26600
C856        C  0.38781124  0.87379346  0.74134225    -0.14700
C857        C  0.39276132  0.91299873  0.73851146     0.35900
C858        C  0.36202108  0.93590531  0.72729973    -0.26100
C859        C  0.32658255  0.92047217  0.71916877    -0.15300
C860        C  0.32068905  0.88218321  0.72714807     0.37000
N861        N  0.28411049  0.86602883  0.72258367    -0.89600
H862        H  0.34688921  0.82934555  0.74116249     0.18100
H863        H  0.36643022  0.96557606  0.72259607     0.18100
N864        N  0.42939736  0.92909840  0.74409991    -0.88600
H865        H  0.27652342  0.85410925  0.74904150     0.35500
H866        H  0.28608097  0.84450053  0.70211193     0.40600
H867        H  0.43696576  0.92502274  0.77311037     0.40200
H868        H  0.42834990  0.95811182  0.73962607     0.35100
C869        C  0.42903048  0.88470075  0.42578563    -0.26600
C870        C  0.45877485  0.85982620  0.41511079    -0.14700
C871        C  0.45256233  0.82065107  0.42259852     0.35900
C872        C  0.41628921  0.80812265  0.43140222    -0.26100
C873        C  0.38631871  0.83320941  0.43722537    -0.15300
C874        C  0.39340120  0.87171719  0.43707622     0.37000
N875        N  0.36382111  0.89769541  0.44690739    -0.89600
H876        H  0.43223939  0.91437588  0.42339703     0.18100
H877        H  0.41178503  0.77828131  0.43495586     0.18100
N878        N  0.48193532  0.79248215  0.42096896    -0.88600
H879        H  0.35807393  0.91451508  0.42287055     0.35500
H880        H  0.37334308  0.91460039  0.46965526     0.40600
H881        H  0.50845479  0.80398265  0.41830618     0.40200
H882        H  0.47678740  0.77510917  0.39699472     0.35100
C883        C  0.20554916  0.92320731  0.54353437    -0.26600
C884        C  0.19802340  0.91383978  0.58226334    -0.14700
C885        C  0.19366057  0.87587845  0.59214736     0.35900
C886        C  0.20430112  0.84808636  0.56571732    -0.26100
C887        C  0.21963001  0.85775516  0.52976040    -0.15300
C888        C  0.21699947  0.89531029  0.51718223     0.37000
N889        N  0.22920059  0.90566520  0.47924535    -0.89600
H890        H  0.20751130  0.95236784  0.53504829     0.18100
H891        H  0.20427406  0.81904010  0.57502793     0.18100
N892        N  0.18201231  0.86548348  0.63026854    -0.88600
H893        H  0.25125381  0.92468678  0.48214921     0.35500
H894        H  0.20670699  0.91944167  0.46529060     0.40600
H895        H  0.20360900  0.84929640  0.64293798     0.40200
H896        H  0.15818155  0.84866262  0.62760800     0.35100
C897        C  0.40255126  0.74539065  0.56175325    -0.26600
C898        C  0.36389333  0.74348617  0.57008438    -0.14700
C899        C  0.35239044  0.73872813  0.60862497     0.35900
C900        C  0.37920299  0.74048363  0.63848499    -0.26100
C901        C  0.41726756  0.74772571  0.63044092    -0.15300
C902        C  0.42949344  0.74768260  0.59156766     0.37000
N903        N  0.46862321  0.75283249  0.58238615    -0.89600
H904        H  0.41157095  0.74836317  0.53199739     0.18100
H905        H  0.36954769  0.73933459  0.66816782     0.18100
N906        N  0.31338036  0.73372089  0.61767771    -0.88600
H907        H  0.47252459  0.75354951  0.55240349     0.35500
H908        H  0.48351166  0.72929535  0.59258956     0.40600
H909        H  0.30494298  0.75543183  0.63618459     0.40200
H910        H  0.31096433  0.70839839  0.63270185     0.35100
C911        C  0.08863689  0.94794999  0.78102425    -0.26600
C912        C  0.07358588  0.96486632  0.81510132    -0.14700
C913        C  0.04239099  0.94655910  0.83209403     0.35900
C914        C  0.02743102  0.91375299  0.81508118    -0.26100
C915        C  0.04339986  0.89741418  0.78163916    -0.15300
C916        C  0.07427097  0.91539316  0.76457237     0.37000
N917        N  0.09245434  0.90122255  0.73051138    -0.89600
H918        H  0.11398012  0.95772976  0.76747910     0.18100
H919        H  0.00362187  0.90050543  0.82879034     0.18100
N920        N  0.02698876  0.96007295  0.86780011    -0.88600
H921        H  0.07266581  0.89992567  0.70799995     0.35500
H922        H  0.10349973  0.87445941  0.73632741     0.40600
H923        H  0.02987730  0.93876219  0.88844699     0.40200
H924        H  0.99814726  0.96533120  0.86366420     0.35100
C925        C  0.12769820  0.93853581  0.87187611    -0.26600
C926        C  0.11087378  0.97448354  0.87597462    -0.14700
C927        C  0.10394497  0.98537948  0.91523791     0.35900
C928        C  0.12058556  0.96526690  0.94635323    -0.26100
C929        C  0.13384463  0.92804899  0.94272857    -0.15300
C930        C  0.13441310  0.91426757  0.90359609     0.37000
N931        N  0.13949878  0.87522811  0.89501046    -0.89600
H932        H  0.13219733  0.92728886  0.84315140     0.18100
H933        H  0.11923761  0.97838670  0.97397732     0.18100
N934        N  0.07657857  0.01360260  0.92510310    -0.88600
H935        H  0.16266193  0.87216334  0.87662018     0.35500
H936        H  0.11549023  0.86596457  0.88023939     0.40600
H937        H  0.08936718  0.03272765  0.94389451     0.40200
H938        H  0.05487064  0.00081691  0.94032950     0.35100
C939        C  0.11750100  0.02791293  0.77553190    -0.26600
C940        C  0.12892823  0.00968859  0.81041039    -0.14700
C941        C  0.16840115  0.00503308  0.81647642     0.35900
C942        C  0.19343566  0.01060824  0.78541294    -0.26100
C943        C  0.18028492  0.02197167  0.74867414    -0.15300
C944        C  0.14232935  0.03362465  0.74489961     0.37000
N945        N  0.12791103  0.05084519  0.71024507    -0.89600
H946        H  0.08799663  0.03455759  0.77047210     0.18100
H947        H  0.22307200  0.00369621  0.78952960     0.18100
N948        N  0.18363913  0.99499825  0.85353604    -0.88600
H949        H  0.12911608  0.03163412  0.68748851     0.35500
H950        H  0.14476646  0.07382327  0.70362893     0.40600
H951        H  0.20177521  0.01631075  0.86240877     0.40200
H952        H  0.19970136  0.97039054  0.85038121     0.35100
C953        C  0.46201754  0.69774571  0.89608254    -0.26600
C954        C  0.47812065  0.66243818  0.90763924    -0.14700
C955        C  0.46020221  0.64482669  0.94005726     0.35900
C956        C  0.42711498  0.66097183  0.95632919    -0.26100
C957        C  0.41004726  0.69369900  0.94117965    -0.15300
C958        C  0.42910762  0.71322126  0.91223682     0.37000
N959        N  0.41457381  0.74877440  0.89854797    -0.89600
H960        H  0.47207131  0.71293288  0.87157749     0.18100
H961        H  0.41359183  0.64660849  0.98005886     0.18100
N962        N  0.47344825  0.61003652  0.95674341    -0.88600
H963        H  0.43127277  0.75951940  0.87641098     0.35500
H964        H  0.41632266  0.76781892  0.92150385     0.40600
H965        H  0.49560106  0.59806834  0.94145149     0.40200
H966        H  0.45139311  0.59086901  0.95522179     0.35100
C967        C  0.50642071  0.66026310  0.80709735    -0.26600
C968        C  0.51792448  0.66791185  0.84555558    -0.14700
C969        C  0.53705100  0.70245980  0.85202963     0.35900
C970        C  0.53725872  0.73030589  0.82313102    -0.26100
C971        C  0.52120781  0.72395544  0.78669157    -0.15300
C972        C  0.50784004  0.68781723  0.77784728     0.37000
N973        N  0.49282954  0.68014435  0.73994171    -0.89600
H974        H  0.49456514  0.63345039  0.79965744     0.18100
H975        H  0.54816239  0.75780253  0.82999438     0.18100
N976        N  0.55220375  0.71127580  0.88943479    -0.88600
H977        H  0.48248191  0.65281544  0.73846910     0.35500
H978        H  0.51520444  0.68132048  0.72043788     0.40600
H979        H  0.53851384  0.73541598  0.89975394     0.40200
H980        H  0.58081632  0.71727852  0.88621200     0.35100
C981        C  0.55511596  0.64128969  0.93939499    -0.26600
C982        C  0.54681976  0.63169410  0.90054050    -0.14700
C983        C  0.57699687  0.61512064  0.87944698     0.35900
C984        C  0.60927944  0.60129148  0.89859414    -0.26100
C985        C  0.61821153  0.61040261  0.93750633    -0.15300
C986        C  0.59015775  0.63198526  0.95731923     0.37000
N987        N  0.59681600  0.64486264  0.99589743    -0.89600
H988        H  0.53482756  0.65715440  0.95618952     0.18100
H989        H  0.62701217  0.58327307  0.88136188     0.18100
N990        N  0.57478222  0.61111875  0.83812820    -0.88600
H991        H  0.57567754  0.63425493  0.01368384     0.35500
H992        H  0.59449790  0.67413064  0.99601366     0.40600
H993        H  0.57917726  0.58291380  0.83080731     0.40200
H994        H  0.59684241  0.62631740  0.82610728     0.35100
C995        C  0.06972036  0.61132389  0.47512408    -0.26600
C996        C  0.10374288  0.62045636  0.49448890    -0.14700
C997        C  0.09994977  0.64590223  0.52594479     0.35900
C998        C  0.06405572  0.65620416  0.53992784    -0.26100
C999        C  0.03068984  0.63820462  0.52747185    -0.15300
C1000       C  0.03404554  0.61800505  0.49196532     0.37000
N1001       N  0.00145076  0.60239037  0.47360884    -0.89600
H1002       H  0.06993704  0.59720770  0.44752908     0.18100
H1003       H  0.06376258  0.67765876  0.56172924     0.18100
N1004       N  0.13252610  0.66032932  0.54534933    -0.88600
H1005       H  0.00574188  0.57344974  0.47070341     0.35500
H1006       H  0.99888729  0.61391120  0.44590628     0.40600
H1007       H  0.13132056  0.65265888  0.57451754     0.40200
H1008       H  0.13140900  0.68962813  0.54372786     0.35100
C1009       C  0.20204441  0.64296027  0.50060555    -0.26600
C1010       C  0.16991138  0.63805221  0.47668491    -0.14700
C1011       C  0.16189805  0.66710324  0.44953218     0.35900
C1012       C  0.18865079  0.69551764  0.44279003    -0.26100
C1013       C  0.22318553  0.69586278  0.46309040    -0.15300
C1014       C  0.22893500  0.66975594  0.49331658     0.37000
N1015       N  0.26082851  0.67084845  0.51912696    -0.89600
H1016       H  0.20672851  0.62680886  0.52659382     0.18100
H1017       H  0.18243222  0.71720009  0.42162913     0.18100
N1018       N  0.12683733  0.66773576  0.42864682    -0.88600
H1019       H  0.26212861  0.69733777  0.53208010     0.35500
H1020       H  0.28547671  0.66526555  0.50361868     0.40600
H1021       H  0.13259441  0.66769299  0.39898307     0.40200
H1022       H  0.11279401  0.69288398  0.43515332     0.35100
C1023       C  0.15060465  0.55913514  0.37791331    -0.26600
C1024       C  0.12289285  0.53107642  0.37972433    -0.14700
C1025       C  0.10789796  0.52369861  0.41723986     0.35900
C1026       C  0.11800774  0.54599549  0.44895172    -0.26100
C1027       C  0.14096632  0.57778831  0.44561458    -0.15300
C1028       C  0.16106431  0.58104835  0.40987372     0.37000
N1029       N  0.19433104  0.60292858  0.40480097    -0.89600
H1030       H  0.16373821  0.56530409  0.35046939     0.18100
H1031       H  0.10485343  0.54003817  0.47649992     0.18100
N1032       N  0.08047506  0.49539583  0.42401847    -0.88600
H1033       H  0.21170935  0.60320200  0.42890808     0.35500
H1034       H  0.18772329  0.62949254  0.39326309     0.40600
H1035       H  0.05597776  0.50826129  0.43464474     0.40200
H1036       H  0.09121402  0.47737060  0.44542618     0.35100
C1037       C  0.09168491  0.34437230  0.45269795    -0.26600
C1038       C  0.10837194  0.31221371  0.43580327    -0.14700
C1039       C  0.09206254  0.29835090  0.40144127     0.35900
C1040       C  0.06100065  0.31683833  0.38465341    -0.26100
C1041       C  0.04467793  0.35060966  0.39996836    -0.15300
C1042       C  0.06102416  0.36385440  0.43503174     0.37000
N1043       N  0.04798285  0.39832550  0.45186309    -0.89600
H1044       H  0.10345292  0.35555882  0.47924689     0.18100
H1045       H  0.05272810  0.30562653  0.35696047     0.18100
N1046       N  0.10706405  0.26619260  0.38159214    -0.88600
H1047       H  0.03939104  0.39276947  0.48012750     0.35500
H1048       H  0.07090377  0.41644766  0.45346116     0.40600
H1049       H  0.10641199  0.24303827  0.40011432     0.40200
H1050       H  0.13489467  0.27155115  0.37358689     0.35100
C1051       C  0.12957564  0.21936916  0.64794649    -0.26600
C1052       C  0.09329767  0.23475195  0.64216542    -0.14700
C1053       C  0.07516707  0.22976979  0.60604609     0.35900
C1054       C  0.09674946  0.21753757  0.57439485    -0.26100
C1055       C  0.13561967  0.21073730  0.57884556    -0.15300
C1056       C  0.15099956  0.20707674  0.61636264     0.37000
N1057       N  0.18952803  0.19488924  0.62165496    -0.89600
H1058       H  0.14274631  0.22068150  0.67629993     0.18100
H1059       H  0.08442021  0.21853773  0.54562010     0.18100
N1060       N  0.03621778  0.24044367  0.60076644    -0.88600
H1061       H  0.19146515  0.16708541  0.61211216     0.35500
H1062       H  0.19675148  0.19466058  0.65103891     0.40600
H1063       H  0.02017751  0.22266012  0.61803296     0.40200
H1064       H  0.02765467  0.23578642  0.57217275     0.35100
C1065       C  0.16558565  0.55290090  0.58090846    -0.26600
C1066       C  0.20402058  0.54470123  0.57578139    -0.14700
C1067       C  0.21894061  0.54663824  0.53807819     0.35900
C1068       C  0.19666935  0.56096752  0.50791967    -0.26100
C1069       C  0.16042578  0.57687747  0.51460314    -0.15300
C1070       C  0.14333124  0.56779555  0.55059245     0.37000
N1071       N  0.10344389  0.57090734  0.55621503    -0.89600
H1072       H  0.15259758  0.54777760  0.60871070     0.18100
H1073       H  0.20955010  0.56339004  0.47980164     0.49300
N1074       N  0.25650012  0.53413271  0.52928503    -0.88600
H1075       H  0.09322466  0.54420575  0.56189391     0.35500
H1076       H  0.09853869  0.58747383  0.58084608     0.40600
H1077       H  0.25961835  0.50636815  0.53858967     0.40200
H1078       H  0.27567492  0.55081379  0.54426106     0.35100
C1079       C  0.27555398  0.36711175  0.61381256    -0.26600
C1080       C  0.28369785  0.40099696  0.59507737    -0.14700
C1081       C  0.28257226  0.40225903  0.55425973     0.35900
C1082       C  0.26987986  0.37100009  0.53338119    -0.26100
C1083       C  0.25772865  0.33866623  0.55259527    -0.15300
C1084       C  0.26227999  0.33621632  0.59315079     0.37000
N1085       N  0.25199875  0.30306803  0.61386482    -0.89600
H1086       H  0.27677940  0.36525784  0.64512031     0.18100
H1087       H  0.26743795  0.37298288  0.50216054     0.18100
N1088       N  0.29248046  0.43561768  0.53386179    -0.88600
H1089       H  0.23115376  0.31041430  0.63391304     0.35500
H1090       H  0.27570307  0.29336899  0.62920949     0.40600
H1091       H  0.26930349  0.44378967  0.51681379     0.40200
H1092       H  0.31469063  0.42888604  0.51521598     0.35100
C1093       C  0.21021725  0.39746408  0.73678214    -0.26600
C1094       C  0.19991713  0.43552996  0.73373918    -0.14700
C1095       C  0.16305296  0.44708608  0.74376645     0.35900
C1096       C  0.13601134  0.41973774  0.75188815    -0.26100
C1097       C  0.14523133  0.38133406  0.74952430    -0.15300
C1098       C  0.18308014  0.37026086  0.74388134     0.37000
N1099       N  0.19369782  0.33134250  0.74299820    -0.89600
H1100       H  0.23865747  0.38821867  0.72985354     0.18100
H1101       H  0.10697074  0.42840880  0.75658725     0.18100
N1102       N  0.15267934  0.48620819  0.74335332    -0.88600
H1103       H  0.21463596  0.32681943  0.76400379     0.35500
H1104       H  0.20544188  0.32549017  0.71591567     0.40600
H1105       H  0.16845308  0.49941438  0.76496345     0.40200
H1106       H  0.12426811  0.48986258  0.75068430     0.35100
C1107       C  0.08450955  0.18274093  0.88564361    -0.26600
C1108       C  0.05379451  0.16713749  0.90647046    -0.14700
C1109       C  0.05313926  0.17348572  0.94703900     0.35900
C1110       C  0.08432784  0.19078544  0.96534938    -0.26100
C1111       C  0.11541107  0.20382760  0.94395251    -0.15300
C1112       C  0.11416851  0.20125933  0.90355555     0.37000
N1113       N  0.14378739  0.21606634  0.88023955    -0.89600
H1114       H  0.08653741  0.17885851  0.85462461     0.18100
H1115       H  0.08418909  0.19401648  0.99653976     0.18100
N1116       N  0.02144563  0.16296355  0.96985521    -0.88600
H1117       H  0.13178928  0.23549398  0.86093374     0.35500
H1118       H  0.15557544  0.19407921  0.86410605     0.40600
H1119       H  0.01066920  0.18710644  0.98324859     0.40200
H1120       H  0.03091398  0.14454354  0.99147526     0.35100
C1121       C  0.09635143  0.06009087  0.86680903    -0.26600
C1122       C  0.07509648  0.03342035  0.84686465    -0.14700
C1123       C  0.03904092  0.04570626  0.83307221     0.35900
C1124       C  0.02454218  0.08183298  0.84332420    -0.26100
C1125       C  0.04466050  0.10723323  0.86719657    -0.15300
C1126       C  0.08119667  0.09383244  0.88034187     0.37000
N1127       N  0.10320481  0.11192411  0.90968034    -0.89600
H1128       H  0.12479938  0.05260010  0.87604047     0.18100
H1129       H  0.99668464  0.08991395  0.83293410     0.18100
N1130       N  0.01778944  0.02321270  0.80673059    -0.88600
H1131       H  0.10659216  0.09389937  0.93338846     0.35500
H1132       H  0.12991756  0.11748671  0.89854950     0.40600
H1133       H  0.01413927  0.03836298  0.78102838     0.40200
H1134       H  0.99109130  0.01906110  0.81858813     0.35100
C1135       C  0.02158846  0.16791434  0.80937289    -0.26600
C1136       C  0.01519464  0.17478649  0.84907027    -0.14700
C1137       C  0.00585131  0.21273307  0.86003103     0.35900
C1138       C  0.00750658  0.24192385  0.83314187    -0.26100
C1139       C  0.01618610  0.23490364  0.79464252    -0.15300
C1140       C  0.02149572  0.19736776  0.78224299     0.37000
N1141       N  0.02923172  0.18857681  0.74258578    -0.89600
H1142       H  0.02875802  0.14017371  0.79911102     0.18100
H1143       H  0.00317408  0.27058777  0.84282848     0.18100
N1144       N  0.99658271  0.22201492  0.89931843    -0.88600
H1145       H  0.05345084  0.20272827  0.73419413     0.35500
H1146       H  0.00648529  0.19828719  0.72568613     0.40600
H1147       H  0.97020556  0.23547725  0.89952958     0.40200
H1148       H  0.01641014  0.24117572  0.90956273     0.35100
C1149       C  0.33014561  0.04033753  0.50457958    -0.26600
C1150       C  0.34672483  0.07557730  0.51159561    -0.14700
C1151       C  0.33847955  0.09294048  0.54805159     0.35900
C1152       C  0.31832109  0.07402816  0.57653484    -0.26100
C1153       C  0.30552905  0.03773619  0.57063514    -0.15300
C1154       C  0.31097729  0.02090917  0.53382858     0.37000
N1155       N  0.29631193  0.98468397  0.52471466    -0.89600
H1156       H  0.33124997  0.02753636  0.47631808     0.18100
H1157       H  0.31364822  0.08771617  0.60415569     0.18100
N1158       N  0.35190137  0.12961224  0.55717153    -0.88600
H1159       H  0.26728627  0.98510510  0.52998362     0.35500
H1160       H  0.30927998  0.96473240  0.54268870     0.40600
H1161       H  0.36887216  0.12776222  0.58198019     0.40200
H1162       H  0.32858413  0.14675328  0.56361845     0.35100
C1163       C  0.32064196  0.19595294  0.47683295    -0.26600
C1164       C  0.28525206  0.18555963  0.46198942    -0.14700
C1165       C  0.28056330  0.14851460  0.44898084     0.35900
C1166       C  0.30958223  0.12218419  0.45434975    -0.26100
C1167       C  0.34452165  0.13112775  0.47225918    -0.15300
C1168       C  0.35018775  0.16945670  0.48224512     0.37000
N1169       N  0.38445441  0.18178972  0.49992055    -0.89600
H1170       H  0.32467793  0.22444895  0.48686050     0.18100
H1171       H  0.30444098  0.09363683  0.44510488     0.18100
N1172       N  0.24673210  0.13668774  0.42986865    -0.88600
H1173       H  0.37792493  0.19416912  0.52652645     0.35500
H1174       H  0.39597033  0.20247857  0.48226062     0.40600
H1175       H  0.24134887  0.15470437  0.40651542     0.40200
H1176       H  0.22420473  0.13827946  0.44913234     0.35100
C1177       C  0.39112782  0.07474743  0.37140604    -0.26600
C1178       C  0.40550150  0.03756445  0.37101848    -0.14700
C1179       C  0.40114479  0.01819396  0.40706766     0.35900
C1180       C  0.39306846  0.03818974  0.44176609    -0.26100
C1181       C  0.38039490  0.07582084  0.44182626    -0.15300
C1182       C  0.38055679  0.09411756  0.40503638     0.37000
N1183       N  0.37237086  0.13345541  0.40087779    -0.89600
H1184       H  0.38808740  0.09087211  0.34562312     0.18100
H1185       H  0.39528061  0.02345613  0.46909311     0.18100
N1186       N  0.40250739  0.97804480  0.40866180    -0.88600
H1187       H  0.34970390  0.13673556  0.38155599     0.35500
H1188       H  0.39584673  0.14646330  0.38886125     0.40600
H1189       H  0.38042438  0.96782069  0.39193414     0.40200
H1190       H  0.39805985  0.96879977  0.43702720     0.35100
C1191       C  0.37828810  0.45459511  0.86366578    -0.26600
C1192       C  0.40243122  0.48533271  0.86938901    -0.14700
C1193       C  0.41097497  0.49355691  0.90928348     0.35900
C1194       C  0.39679669  0.47132750  0.93930499    -0.26100
C1195       C  0.37449370  0.43944344  0.93329544    -0.15300
C1196       C  0.36655002  0.43066094  0.89339671     0.37000
N1197       N  0.35086948  0.39610650  0.87999956    -0.89600
H1198       H  0.37080946  0.44664912  0.83447127     0.18100
H1199       H  0.40463345  0.47871655  0.96869729     0.18100
N1200       N  0.43427084  0.52345900  0.92212876    -0.88600
H1201       H  0.32178789  0.39555704  0.88316704     0.35500
H1202       H  0.36498338  0.37278236  0.89161994     0.40600
H1203       H  0.42221659  0.54904005  0.91415297     0.40200
H1204       H  0.46198518  0.51939366  0.91285185     0.35100
C1205       C  0.35531597  0.52225995  0.80875317    -0.26600
C1206       C  0.39425748  0.51846852  0.80085817    -0.14700
C1207       C  0.40689430  0.53119998  0.76346413     0.35900
C1208       C  0.38026191  0.54010150  0.73462077    -0.26100
C1209       C  0.34165663  0.53717694  0.74133956    -0.15300
C1210       C  0.32913608  0.53098112  0.77937771     0.37000
N1211       N  0.28959655  0.53044513  0.78776273    -0.89600
H1212       H  0.34449532  0.51686219  0.83736536     0.18100
H1213       H  0.39000023  0.54571851  0.70551086     0.18100
N1214       N  0.44590333  0.53164729  0.75183957    -0.88600
H1215       H  0.28422653  0.55014370  0.80952528     0.35500
H1216       H  0.28310206  0.50388586  0.79853113     0.40600
H1217       H  0.46435943  0.52244944  0.77311255     0.40200
H1218       H  0.44918624  0.51265243  0.72886377     0.35100
C1219       C  0.42919320  0.57185873  0.84654786    -0.26600
C1220       C  0.44766019  0.53646282  0.84196634    -0.14700
C1221       C  0.48752996  0.53709110  0.84648571     0.35900
C1222       C  0.50505293  0.56878288  0.86295840    -0.26100
C1223       C  0.48701109  0.60452203  0.86558595    -0.15300
C1224       C  0.44836064  0.60526765  0.85416195     0.37000
N1225       N  0.42762193  0.63983687  0.85042323    -0.89600
H1226       H  0.39887194  0.57433383  0.84352282     0.18100
H1227       H  0.53336185  0.56403154  0.87286112     0.18100
N1228       N  0.51116637  0.50661624  0.83435830    -0.88600
H1229       H  0.40439696  0.63895606  0.86893950     0.35500
H1230       H  0.41747163  0.64189796  0.82200658     0.40600
H1231       H  0.52967734  0.51666273  0.81340459     0.40200
H1232       H  0.52729709  0.49750108  0.85808801     0.35100
C1233       C  0.44583683  0.41536084  0.76254988    -0.26600
C1234       C  0.47535358  0.39732799  0.78187240    -0.14700
C1235       C  0.48555268  0.41060707  0.81908605     0.35900
C1236       C  0.46825217  0.44370955  0.83393681    -0.26100
C1237       C  0.44118320  0.46496620  0.81263194    -0.15300
C1238       C  0.42680644  0.44625175  0.77846919     0.37000
N1239       N  0.39043243  0.45454042  0.76186899    -0.89600
H1240       H  0.43548926  0.40391253  0.73546981     0.18100
H1241       H  0.47547122  0.45267932  0.86297045     0.18100
N1242       N  0.51277516  0.39019473  0.84211393    -0.88600
H1243       H  0.39376752  0.45984592  0.73232282     0.35500
H1244       H  0.37355212  0.43080888  0.76451209     0.40600
H1245       H  0.50111523  0.36419769  0.84868175     0.40200
H1246       H  0.51727108  0.40373776  0.86859856     0.35100
C1247       C  0.56103291  0.24439947  0.84426248    -0.26600
C1248       C  0.57465514  0.24099316  0.80639357    -0.14700
C1249       C  0.60869400  0.22135059  0.79966255     0.35900
C1250       C  0.63147965  0.21080280  0.83101612    -0.26100
C1251       C  0.62091830  0.22036690  0.86875331    -0.15300
C1252       C  0.58423493  0.23436690  0.87574496     0.37000
N1253       N  0.57237100  0.24285355  0.91434702    -0.89600
H1254       H  0.53453823  0.25898831  0.84962177     0.18100
H1255       H  0.65943467  0.19930319  0.82556226     0.18100
N1256       N  0.62149894  0.21471996  0.76096760    -0.88600
H1257       H  0.54736289  0.22848850  0.91953324     0.35500
H1258       H  0.56633243  0.27161213  0.91585092     0.40600
H1259       H  0.62560963  0.18581297  0.75751379     0.40200
H1260       H  0.64760405  0.22766457  0.75768621     0.35100
C1261       C  0.70913812  0.51913352  0.89349108    -0.26600
C1262       C  0.71775896  0.54039129  0.86059685    -0.14700
C1263       C  0.71148020  0.57913932  0.86182262     0.35900
C1264       C  0.69362508  0.59514475  0.89409450    -0.26100
C1265       C  0.68119886  0.57376222  0.92666901    -0.15300
C1266       C  0.69333089  0.53507726  0.92701619     0.37000
N1267       N  0.69505237  0.51140683  0.96058201    -0.89600
H1268       H  0.71657367  0.48952151  0.89398337     0.18100
H1269       H  0.68714797  0.62485934  0.89239890     0.18100
N1270       N  0.72180563  0.60238039  0.82986094    -0.88600
H1271       H  0.67426618  0.49096908  0.95874925     0.35500
H1272       H  0.69453219  0.52565927  0.98674871     0.40600
H1273       H  0.74039213  0.62271326  0.84014484     0.40200
H1274       H  0.69747809  0.61616246  0.81969204     0.35100
C1275       C  0.78793131  0.39405636  0.87516663    -0.26600
C1276       C  0.78889109  0.38740580  0.83508635    -0.14700
C1277       C  0.78656400  0.35009065  0.82145874     0.35900
C1278       C  0.77851129  0.32134283  0.84742011    -0.26100
C1279       C  0.77134174  0.32909130  0.88657611    -0.15300
C1280       C  0.77868672  0.36524757  0.90103237     0.37000
N1281       N  0.77378298  0.37364077  0.94124164    -0.89600
H1282       H  0.79038357  0.42241586  0.88614893     0.18100
H1283       H  0.77445303  0.29329643  0.83612070     0.18100
N1284       N  0.79075847  0.34062243  0.78137005    -0.88600
H1285       H  0.75311992  0.39471755  0.94362735     0.35500
H1286       H  0.79918843  0.38426585  0.95188591     0.40600
H1287       H  0.81604638  0.35186683  0.77144470     0.40200
H1288       H  0.76826684  0.35206608  0.76548673     0.35100
C1289       C  0.63681707  0.45132125  0.71248843    -0.26600
C1290       C  0.67344521  0.43795512  0.70455453    -0.14700
C1291       C  0.67798969  0.40340509  0.68486969     0.35900
C1292       C  0.64663238  0.38029298  0.67962111    -0.26100
C1293       C  0.61076629  0.39164610  0.69216073    -0.15300
C1294       C  0.60541199  0.42849200  0.70643949     0.37000
N1295       N  0.56906621  0.44216422  0.71829343    -0.89600
H1296       H  0.63279673  0.47814875  0.72674611     0.18100
H1297       H  0.65058530  0.35227363  0.66799399     0.18100
N1298       N  0.71471775  0.39087251  0.67246216    -0.88600
H1299       H  0.55881771  0.42460004  0.73994942     0.35500
H1300       H  0.55078067  0.44106196  0.69446052     0.40600
H1301       H  0.72383341  0.40968641  0.65138090     0.40200
H1302       H  0.71315609  0.36462386  0.65904670     0.35100
C1303       C  0.88021751  0.05164475  0.88818807    -0.26600
C1304       C  0.85998097  0.06170928  0.92201684    -0.14700
C1305       C  0.82069125  0.05186305  0.92257733     0.35900
C1306       C  0.80285885  0.03899295  0.88866633    -0.26100
C1307       C  0.82276808  0.03312854  0.85423988    -0.15300
C1308       C  0.86223409  0.03785310  0.85468847     0.37000
N1309       N  0.88401214  0.02977890  0.82061364    -0.89600
H1310       H  0.91015123  0.05620796  0.88638660     0.18100
H1311       H  0.77292773  0.03309633  0.88946912     0.18100
N1312       N  0.79743932  0.05544679  0.95641609    -0.88600
H1313       H  0.91277962  0.03408043  0.82571687     0.35500
H1314       H  0.87571585  0.04898682  0.79925187     0.40600
H1315       H  0.81290921  0.06155961  0.98113617     0.40200
H1316       H  0.77797975  0.07740010  0.95167049     0.35100
C1317       C  0.91857353  0.13947183  0.91691905    -0.26600
C1318       C  0.91687709  0.10544193  0.93717973    -0.14700
C1319       C  0.95222375  0.08559016  0.94078128     0.35900
C1320       C  0.98618639  0.10141775  0.92687229    -0.26100
C1321       C  0.98623733  0.13315454  0.90212861    -0.15300
C1322       C  0.94950211  0.14866854  0.89391239     0.37000
N1323       N  0.94106835  0.16996423  0.85968555    -0.89600
H1324       H  0.89483084  0.15818528  0.91491719     0.18100
H1325       H  0.01249629  0.08663643  0.93281403     0.18100
N1326       N  0.95406530  0.04884508  0.95752178    -0.88600
H1327       H  0.92726274  0.19486979  0.86754920     0.35500
H1328       H  0.92237245  0.15451396  0.84257185     0.40600
H1329       H  0.97276380  0.04946042  0.98104296     0.40200
H1330       H  0.96512659  0.03033847  0.93688336     0.35100
C1331       C  0.83155071  0.13347527  0.99323481    -0.26600
C1332       C  0.84680839  0.12253037  0.95665679    -0.14700
C1333       C  0.82872103  0.13894010  0.92337053     0.35900
C1334       C  0.79853975  0.16429272  0.92739351    -0.26100
C1335       C  0.78391932  0.17446788  0.96347383    -0.15300
C1336       C  0.80069333  0.15875465  0.99701540     0.37000
N1337       N  0.78644363  0.16614147  0.03521699    -0.89600
H1338       H  0.84156133  0.12106860  0.01983393     0.18100
H1339       H  0.78604277  0.17607913  0.90127112     0.18100
N1340       N  0.83990459  0.12920203  0.88471377    -0.88600
H1341       H  0.77752715  0.14065018  0.04673552     0.35500
H1342       H  0.76259324  0.18359009  0.03447871     0.40600
H1343       H  0.84685648  0.15379752  0.86998932     0.40200
H1344       H  0.81663032  0.11781733  0.87041875     0.35100
C1345       C  0.98931359  0.47006362  0.65203828    -0.26600
C1346       C  0.97099391  0.46088810  0.61661652    -0.14700
C1347       C  0.98201603  0.42612267  0.59965788     0.35900
C1348       C  0.00083462  0.39874816  0.62179690    -0.26100
C1349       C  0.01092269  0.40519966  0.66020033    -0.15300
C1350       C  0.00784409  0.44231378  0.67471147     0.37000
N1351       N  0.02242623  0.45279341  0.71205824    -0.89600
H1352       H  0.98492582  0.49766461  0.66451009     0.18100
H1353       H  0.00648038  0.37149338  0.60894275     0.18100
N1354       N  0.97477023  0.41773599  0.56004759    -0.88600
H1355       H  0.04290665  0.47319410  0.70760180     0.35500
H1356       H  0.03632633  0.43031651  0.72553433     0.40600
H1357       H  0.95943903  0.39301180  0.56021397     0.40200
H1358       H  0.00058013  0.41221416  0.54650174     0.35100
C1359       C  0.90777706  0.46929544  0.66690379    -0.26600
C1360       C  0.90641438  0.49097656  0.63243069    -0.14700
C1361       C  0.87293039  0.51300880  0.62678642     0.35900
C1362       C  0.84555249  0.51609915  0.65640748    -0.26100
C1363       C  0.84988390  0.49701323  0.69188154    -0.15300
C1364       C  0.88155512  0.47293096  0.69646062     0.37000
N1365       N  0.88734511  0.44978343  0.73000585    -0.89600
H1366       H  0.92800085  0.44688524  0.67113027     0.18100
H1367       H  0.82049642  0.53318766  0.65131475     0.18100
N1368       N  0.86646849  0.53223526  0.59088321    -0.88600
H1369       H  0.86433486  0.43199679  0.73322333     0.35500
H1370       H  0.89029477  0.46689092  0.75437162     0.40600
H1371       H  0.86269265  0.56081213  0.59678241     0.40200
H1372       H  0.84136066  0.52234100  0.57882180     0.35100
C1373       C  0.94487479  0.56002692  0.61161915    -0.26600
C1374       C  0.95784449  0.52699070  0.59303451    -0.14700
C1375       C  0.98987934  0.53191023  0.56863118     0.35900
C1376       C  0.00234693  0.56803175  0.55911223    -0.26100
C1377       C  0.98354814  0.60140595  0.57098745    -0.15300
C1378       C  0.95543348  0.59619348  0.60014636     0.37000
N1379       N  0.93498016  0.62640253  0.61794152    -0.89600
H1380       H  0.92512645  0.55883687  0.63513055     0.18100
H1381       H  0.02694948  0.56876516  0.54120497     0.18100
N1382       N  0.01144784  0.50122443  0.55301273    -0.88600
H1383       H  0.92162135  0.64268116  0.59664258     0.35500
H1384       H  0.95280955  0.64216321  0.63532560     0.40600
H1385       H  0.99423250  0.48361254  0.53675283     0.40200
H1386       H  0.02478764  0.48650720  0.57534465     0.35100
C1387       C  0.53518984  0.06458492  0.54480183    -0.26600
C1388       C  0.53637444  0.09531006  0.57104965    -0.14700
C1389       C  0.54876033  0.08593471  0.60941117     0.35900
C1390       C  0.56710551  0.05134640  0.61683754    -0.26100
C1391       C  0.56688555  0.02148012  0.59013433    -0.15300
C1392       C  0.54607222  0.02782247  0.55548741     0.37000
N1393       N  0.53632040  0.99719400  0.53059963    -0.89600
H1394       H  0.52396277  0.06870152  0.51586933     0.18100
H1395       H  0.57909045  0.04723710  0.64540613     0.18100
N1396       N  0.54076780  0.10920939  0.64212304    -0.88600
H1397       H  0.54679337  0.00256760  0.50294778     0.35500
H1398       H  0.50687628  0.99648871  0.52844734     0.40600
H1399       H  0.52402456  0.09415799  0.66120755     0.40200
H1400       H  0.56631595  0.11504522  0.65627655     0.35100
C1401       C  0.54939341  0.17734883  0.60862597    -0.26600
C1402       C  0.51583451  0.16406548  0.59095384    -0.14700
C1403       C  0.48144648  0.18262505  0.60240161     0.35900
C1404       C  0.48226683  0.21351510  0.62829335    -0.26100
C1405       C  0.51633272  0.22733015  0.64299424    -0.15300
C1406       C  0.55004259  0.20783862  0.63416198     0.37000
N1407       N  0.58523880  0.21894708  0.65143155    -0.89600
H1408       H  0.57607355  0.16388500  0.60156671     0.18100
H1409       H  0.45606154  0.22772479  0.63568845     0.18100
N1410       N  0.44558673  0.17215422  0.58695987    -0.88600
H1411       H  0.60758794  0.20209259  0.64159204     0.35500
H1412       H  0.58332158  0.21424515  0.68122388     0.40600
H1413       H  0.43361817  0.19541888  0.57286355     0.40200
H1414       H  0.42809088  0.16500636  0.61000915     0.35100
C1415       C  0.45781089  0.10281819  0.55240855    -0.26600
C1416       C  0.48325486  0.12687942  0.53347081    -0.14700
C1417       C  0.47388004  0.13496485  0.49366200     0.35900
C1418       C  0.43768973  0.12665372  0.47892934    -0.26100
C1419       C  0.41133575  0.10529560  0.49957783    -0.15300
C1420       C  0.42559404  0.08849217  0.53425579     0.37000
N1421       N  0.41038572  0.05449811  0.54951946    -0.89600
H1422       H  0.46472134  0.09220141  0.58101571     0.18100
H1423       H  0.43069389  0.13607727  0.45002036     0.18100
N1424       N  0.50035248  0.14764992  0.46556780    -0.88600
H1425       H  0.40377479  0.05878600  0.57864677     0.35500
H1426       H  0.43139799  0.03362989  0.54826143     0.40600
H1427       H  0.52457309  0.13064513  0.46592417     0.40200
H1428       H  0.50613624  0.17594155  0.46893424     0.35100
C1429       C  0.50302586  0.09167716  0.29624230    -0.26600
C1430       C  0.48151007  0.11720952  0.27387802    -0.14700
C1431       C  0.44252244  0.11158926  0.27085239     0.35900
C1432       C  0.42622676  0.08109001  0.28984023    -0.26100
C1433       C  0.44689703  0.05460674  0.31300770    -0.15300
C1434       C  0.48666272  0.06069695  0.31526107     0.37000
N1435       N  0.51140537  0.03579901  0.33589929    -0.89600
H1436       H  0.53330036  0.09523600  0.29844099     0.18100
H1437       H  0.39615751  0.07794346  0.28573217     0.18100
N1438       N  0.41921706  0.13667883  0.24814008    -0.88600
H1439       H  0.52567151  0.05119499  0.35706501     0.35500
H1440       H  0.53134433  0.02497572  0.31654334     0.40600
H1441       H  0.41897355  0.16272093  0.26208820     0.40200
H1442       H  0.39122740  0.12777211  0.24735025     0.35100
C1443       C  0.70727897  0.93967534  0.36441924    -0.26600
C1444       C  0.68426004  0.96594048  0.34575309    -0.14700
C1445       C  0.64971126  0.97633075  0.36320321     0.35900
C1446       C  0.63912546  0.95963714  0.39860153    -0.26100
C1447       C  0.66202714  0.93278613  0.41835708    -0.15300
C1448       C  0.69686427  0.92242547  0.39909862     0.37000
N1449       N  0.72064885  0.89174738  0.41112571    -0.89600
H1450       H  0.73372780  0.93115568  0.35120709     0.18100
H1451       H  0.61111300  0.96558751  0.40957705     0.18100
N1452       N  0.62476473  0.00287954  0.34447394    -0.88600
H1453       H  0.74799613  0.90165382  0.41551478     0.35500
H1454       H  0.72156859  0.87167865  0.38902784     0.40600
H1455       H  0.60081617  0.00802164  0.36138751     0.40200
H1456       H  0.61523512  0.99060256  0.31883026     0.35100
C1457       C  0.61573132  0.05475699  0.18210840    -0.26600
C1458       C  0.65354703  0.06449445  0.17639580    -0.14700
C1459       C  0.66174529  0.09700442  0.15491863     0.35900
C1460       C  0.63276799  0.12281112  0.14655639    -0.26100
C1461       C  0.59611079  0.11643176  0.15965082    -0.15300
C1462       C  0.58677823  0.08087709  0.17412256     0.37000
N1463       N  0.54893316  0.07342069  0.18604648    -0.89600
H1464       H  0.60895590  0.02934225  0.19767411     0.18100
H1465       H  0.63988006  0.14994416  0.13463864     0.18100
N1466       N  0.69985727  0.10554562  0.14483916    -0.88600
H1467       H  0.54924456  0.06802330  0.21581076     0.35500
H1468       H  0.54004009  0.04915288  0.17186645     0.40600
H1469       H  0.70678993  0.13116091  0.15761861     0.40200
H1470       H  0.70100298  0.10890146  0.11479539     0.35100
C1471       C  0.58431646  0.21326099  0.51146275    -0.26600
C1472       C  0.61876792  0.19436864  0.50644295    -0.14700
C1473       C  0.61986802  0.15521616  0.51154237     0.35900
C1474       C  0.58732213  0.13606360  0.52303464    -0.26100
C1475       C  0.55243636  0.15479895  0.53055531    -0.15300
C1476       C  0.55142241  0.19453517  0.52247943     0.37000
N1477       N  0.51782127  0.21741698  0.52570573    -0.89600
H1478       H  0.58255450  0.24318584  0.50599544     0.18100
H1479       H  0.59088958  0.10633197  0.52760567     0.18100
N1480       N  0.65446105  0.13459733  0.50630705    -0.88600
H1481       H  0.52099031  0.23526948  0.54952285     0.35500
H1482       H  0.49369914  0.20163554  0.52955919     0.40600
H1483       H  0.64996555  0.11416850  0.48511006     0.40200
H1484       H  0.66109388  0.12089236  0.53228953     0.35100
C1485       C  0.61862224  0.28113009  0.29119271    -0.26600
C1486       C  0.58345687  0.26464193  0.29741558    -0.14700
C1487       C  0.56933732  0.26189070  0.33529045     0.35900
C1488       C  0.59264196  0.27172431  0.36652397    -0.26100
C1489       C  0.63001362  0.28310358  0.36057349    -0.15300
C1490       C  0.64218783  0.29019999  0.32228501     0.37000
N1491       N  0.67865420  0.30497023  0.31381525    -0.89600
H1492       H  0.62911770  0.28416722  0.26195120     0.18100
H1493       H  0.58275787  0.26677013  0.39567812     0.18100
N1494       N  0.53322974  0.24524559  0.34215002    -0.88600
H1495       H  0.69948517  0.28531373  0.32129450     0.35500
H1496       H  0.68244360  0.32939980  0.33006822     0.40600
H1497       H  0.51253963  0.26371195  0.33128299     0.40200
H1498       H  0.52822780  0.24275294  0.37178879     0.35100
C1499       C  0.75152359  0.13335058  0.39530059    -0.26600
C1500       C  0.74807014  0.16991750  0.38024852    -0.14700
C1501       C  0.75268471  0.17548101  0.33992468     0.35900
C1502       C  0.75652530  0.14462658  0.31562288    -0.26100
C1503       C  0.75592385  0.10807970  0.33019977    -0.15300
C1504       C  0.75561332  0.10220535  0.37062028     0.37000
N1505       N  0.75680322  0.06483609  0.38630818    -0.89600
H1506       H  0.74888567  0.12879719  0.42617423     0.18100
H1507       H  0.75777020  0.14929526  0.28463709     0.18100
N1508       N  0.75190829  0.21180407  0.32221564    -0.88600
H1509       H  0.75466065  0.06553647  0.41644012     0.35500
H1510       H  0.78348124  0.05340145  0.38022329     0.40600
H1511       H  0.72486788  0.22349222  0.32497213     0.40200
H1512       H  0.77178996  0.22873168  0.33592120     0.35100
C1513       C  0.98127705  0.05112704  0.14429084    -0.26600
C1514       C  0.94282188  0.05486873  0.13381221    -0.14700
C1515       C  0.92270791  0.08714068  0.14823607     0.35900
C1516       C  0.94152624  0.11487154  0.16914857    -0.26100
C1517       C  0.98029728  0.11246099  0.17559688    -0.15300
C1518       C  0.00017932  0.07988572  0.16399935     0.37000
N1519       N  0.03951113  0.07545003  0.17295379    -0.89600
H1520       H  0.99721756  0.02607657  0.13733909     0.18100
H1521       H  0.92585342  0.13948676  0.17865464     0.18100
N1522       N  0.88344186  0.09317557  0.13963492    -0.88600
H1523       H  0.05405560  0.07148543  0.14699587     0.35500
H1524       H  0.04288794  0.05112404  0.18957455     0.40600
H1525       H  0.88022824  0.11871821  0.12503681     0.40200
H1526       H  0.86891049  0.09528123  0.16582584     0.35100
C1527       C  0.89294413  0.01980937  0.04031404    -0.26600
C1528       C  0.91104575  0.04285002  0.06789321    -0.14700
C1529       C  0.92014902  0.07993440  0.05473845     0.35900
C1530       C  0.90617629  0.09343298  0.01940915    -0.26100
C1531       C  0.88668003  0.07106063  0.99267059    -0.15300
C1532       C  0.88179119  0.03272951  0.00322014     0.37000
N1533       N  0.86696079  0.00593690  0.97653494    -0.89600
H1534       H  0.88748396  0.99085600  0.04763681     0.18100
H1535       H  0.91262213  0.12212868  0.01165343     0.18100
N1536       N  0.94597047  0.10393236  0.07463834    -0.88600
H1537       H  0.84340420  0.99350790  0.98911039     0.35500
H1538       H  0.88744095  0.98504863  0.97218926     0.40600
H1539       H  0.96882172  0.10907682  0.05648493     0.40200
H1540       H  0.93239767  0.12968866  0.07991730     0.35100
C1541       C  0.85840235  0.99772708  0.19669265    -0.26600
C1542       C  0.82200509  0.00297202  0.18211059    -0.14700
C1543       C  0.81730299  0.01338477  0.14297434     0.35900
C1544       C  0.84902608  0.01933051  0.11966886    -0.26100
C1545       C  0.88649094  0.01530502  0.13412386    -0.15300
C1546       C  0.89029267  0.00375922  0.17405484     0.37000
N1547       N  0.92585672  0.99956700  0.19384946    -0.89600
H1548       H  0.86224178  0.99062275  0.22700621     0.18100
H1549       H  0.84336580  0.02927125  0.09076158     0.18100
N1550       N  0.78060787  0.02053523  0.12667464    -0.88600
H1551       H  0.93664314  0.02580143  0.20076023     0.35500
H1552       H  0.94511316  0.98375142  0.17779392     0.40600
H1553       H  0.76729377  0.04168659  0.14277866     0.40200
H1554       H  0.76483438  0.99606813  0.12886744     0.35100
C1555       C  0.99601570  0.94980673  0.06812945    -0.26600
C1556       C  0.98027543  0.91515162  0.07912648    -0.14700
C1557       C  0.94774995  0.91750223  0.10273064     0.35900
C1558       C  0.93096146  0.95225416  0.11164670    -0.26100
C1559       C  0.94558069  0.98743075  0.09999138    -0.15300
C1560       C  0.97928901  0.98510850  0.07705583     0.37000
N1561       N  0.99710074  0.01726871  0.06037513    -0.89600
H1562       H  0.02097530  0.95023386  0.05068780     0.18100
H1563       H  0.90465739  0.95018400  0.12686310     0.18100
N1564       N  0.92911785  0.88433164  0.11543844    -0.88600
H1565       H  0.02456195  0.01838734  0.07116619     0.35500
H1566       H  0.98401454  0.04233518  0.06856262     0.40600
H1567       H  0.92778715  0.88492347  0.14566075     0.40200
H1568       H  0.90151757  0.88466774  0.10451440     0.35100
C1569       C  0.58124476  0.30198020  0.99485804    -0.26600
C1570       C  0.61585640  0.32012588  0.99153530    -0.14700
C1571       C  0.61688450  0.35909511  0.99745521     0.35900
C1572       C  0.58419194  0.37837372  0.01016585    -0.26100
C1573       C  0.54932632  0.36007813  0.01677247    -0.15300
C1574       C  0.54810302  0.32145886  0.00582406     0.37000
N1575       N  0.51372340  0.30096017  0.00828794    -0.89600
H1576       H  0.57979208  0.27221714  0.98877381     0.18100
H1577       H  0.58758612  0.40743613  0.01703667     0.18100
N1578       N  0.65165210  0.37880039  0.99209962    -0.88600
H1579       H  0.51811605  0.27842430  0.02725716     0.35500
H1580       H  0.50777443  0.28994429  0.98090718     0.40600
H1581       H  0.67092443  0.36890575  0.01283440     0.40200
H1582       H  0.64792310  0.40751608  0.99730132     0.35100
C1583       C  0.54485425  0.42082828  0.09973727    -0.26600
C1584       C  0.53285411  0.41668377  0.06110039    -0.14700
C1585       C  0.53400417  0.44991040  0.03831398     0.35900
C1586       C  0.54951676  0.48333966  0.05338107    -0.26100
C1587       C  0.56864533  0.48508033  0.08961555    -0.15300
C1588       C  0.56517883  0.45195735  0.11292773     0.37000
N1589       N  0.58196643  0.44814600  0.15039070    -0.89600
H1590       H  0.53981259  0.39945807  0.12097932     0.18100
H1591       H  0.54893178  0.50766007  0.03467517     0.18100
N1592       N  0.52004124  0.44989485  0.99928331    -0.88600
H1593       H  0.60097755  0.42547933  0.14983006     0.35500
H1594       H  0.56074806  0.44191545  0.17026170     0.40600
H1595       H  0.49871697  0.47035878  0.99700878     0.40200
H1596       H  0.54187188  0.45737724  0.98075079     0.35100
C1597       C  0.54905216  0.33644118  0.09606283    -0.26600
C1598       C  0.51456295  0.34720642  0.07781746    -0.14700
C1599       C  0.48212449  0.32507168  0.08804672     0.35900
C1600       C  0.48544570  0.29645312  0.11606320    -0.26100
C1601       C  0.52008139  0.28667979  0.13301849    -0.15300
C1602       C  0.55214446  0.30758444  0.12302997     0.37000
N1603       N  0.58861655  0.30073204  0.14003254    -0.89600
H1604       H  0.57485660  0.35074288  0.08870180     0.18100
H1605       H  0.46076914  0.28015731  0.12305904     0.18100
N1606       N  0.44611308  0.32723796  0.06912858    -0.88600
H1607       H  0.59866644  0.27437370  0.13135276     0.35500
H1608       H  0.58626219  0.30164106  0.17016590     0.40600
H1609       H  0.44862539  0.32360516  0.03941507     0.40200
H1610       H  0.43152606  0.35169044  0.07683822     0.35100
C1611       C  0.41821918  0.41912047  0.02435392    -0.26600
C1612       C  0.40677646  0.40421103  0.98805060    -0.14700
C1613       C  0.43526853  0.38387249  0.96775412     0.35900
C1614       C  0.47091521  0.37584652  0.98533847    -0.26100
C1615       C  0.47942522  0.38649677  0.02398519    -0.15300
C1616       C  0.45201183  0.40917299  0.04288407     0.37000
N1617       N  0.45798557  0.42230017  0.08171317    -0.89600
H1618       H  0.40123575  0.43942743  0.03978312     0.18100
H1619       H  0.49171065  0.36105550  0.96821831     0.18100
N1620       N  0.42868031  0.37194938  0.92878323    -0.88600
H1621       H  0.43571826  0.41333597  0.09899213     0.35500
H1622       H  0.45727795  0.45164658  0.08135650     0.40600
H1623       H  0.43265544  0.34284949  0.92755111     0.40200
H1624       H  0.44892771  0.38428551  0.91113764     0.35100
C1625       C  0.80813669  0.44023930  0.36699042    -0.26600
C1626       C  0.80267599  0.47888180  0.37041107    -0.14700
C1627       C  0.81501600  0.49669324  0.40472987     0.35900
C1628       C  0.83458716  0.47607142  0.43355759    -0.26100
C1629       C  0.84372779  0.43769482  0.42873584    -0.15300
C1630       C  0.82815322  0.41965179  0.39514745     0.37000
N1631       N  0.83498594  0.38060415  0.38774547    -0.89600
H1632       H  0.79832322  0.42587595  0.34124078     0.18100
H1633       H  0.84270863  0.49079276  0.45952221     0.18100
N1634       N  0.80782221  0.53590637  0.41061870    -0.88600
H1635       H  0.84898903  0.37792107  0.36130207     0.35500
H1636       H  0.80891114  0.36738313  0.38516604     0.40600
H1637       H  0.83373749  0.54908584  0.41471317     0.40200
H1638       H  0.79219570  0.53903437  0.43602693     0.35100
C1639       C  0.91460854  0.41403804  0.39740831    -0.26600
C1640       C  0.90694025  0.40186979  0.43559409    -0.14700
C1641       C  0.93545576  0.37894757  0.45299519     0.35900
C1642       C  0.97005415  0.37161248  0.43400072    -0.26100
C1643       C  0.97799989  0.38541171  0.39658598    -0.15300
C1644       C  0.94682243  0.40267632  0.37702072     0.37000
N1645       N  0.94675917  0.40762878  0.33571114    -0.89600
H1646       H  0.89563968  0.43233996  0.38165246     0.18100
H1647       H  0.98979479  0.35309955  0.44860279     0.18100
N1648       N  0.92943502  0.36186351  0.48980972    -0.88600
H1649       H  0.93998657  0.43556689  0.32912836     0.35500
H1650       H  0.92514048  0.39125519  0.32418307     0.40600
H1651       H  0.95332415  0.36716239  0.50647599     0.40200
H1652       H  0.92938055  0.33283458  0.48574920     0.35100
C1653       C  0.85076011  0.34453523  0.45981616    -0.26600
C1654       C  0.84321417  0.38220734  0.47066513    -0.14700
C1655       C  0.80744189  0.38950758  0.48919787     0.35900
C1656       C  0.78093353  0.36084873  0.49277053    -0.26100
C1657       C  0.78809635  0.32452199  0.47952633    -0.15300
C1658       C  0.82401076  0.31615368  0.46385773     0.37000
N1659       N  0.83324650  0.27980339  0.44862847    -0.89600
H1660       H  0.87599835  0.33709631  0.44416853     0.18100
H1661       H  0.75349228  0.36763466  0.50483603     0.18100
N1662       N  0.79546374  0.42572669  0.50334516    -0.88600
H1663       H  0.81394808  0.27330165  0.42669574     0.35500
H1664       H  0.83123505  0.26008737  0.47089697     0.40600
H1665       H  0.81557412  0.44635314  0.50019036     0.40200
H1666       H  0.79110787  0.42324986  0.53309904     0.35100
C1667       C  0.88087483  0.42177815  0.53224683    -0.26600
C1668       C  0.88499498  0.43695819  0.49460158    -0.14700
C1669       C  0.90689790  0.47003351  0.49220702     0.35900
C1670       C  0.92111130  0.48762793  0.52609907    -0.26100
C1671       C  0.91848813  0.47121865  0.56340442    -0.15300
C1672       C  0.89677292  0.43795473  0.56559936     0.37000
N1673       N  0.89219900  0.41880078  0.60170878    -0.89600
H1674       H  0.86666473  0.39553258  0.53661183     0.18100
H1675       H  0.93575691  0.51361251  0.52217604     0.18100
N1676       N  0.91604777  0.48553123  0.45521373    -0.88600
H1677       H  0.90287785  0.39142605  0.59899134     0.35500
H1678       H  0.86333317  0.41717203  0.60738693     0.40600
H1679       H  0.94543930  0.48528230  0.45259766     0.40200
H1680       H  0.90686943  0.51353501  0.45462710     0.35100
loop_ 
_geom_bond_atom_site_label_1 
_geom_bond_atom_site_label_2 
_geom_bond_distance 
_geom_bond_site_symmetry_2 
_ccdc_geom_bond_type 
C1         C1629   1.579       .  S
C1         C1640   1.587       .  S
C1         C1654   1.577       .  S
C1         C1668   1.589       .  S
C2         C1573   1.588       .  S
C2         C1584   1.595       .  S
C2         C1598   1.591       .  S
C2         C1615   1.570       .  S
C3         C1514   1.560       .  S
C3         C1528   1.589       .  S
C3         C1545   1.584       .  S
C3         C1559   1.600   1_545  S
In4           O6   2.209       .  S
In4           O7   2.243       .  S
In4          O15   2.260       .  S
In4           O9   2.265       .  S
In4          O11   2.247       .  S
In4          O12   2.249       .  S
In4          O13   2.244       .  S
In4          O16   2.275       .  S
C5           O11   1.259       .  A
C5           O13   1.257       .  A
C5         C1489   1.478       .  S
O6           C14   1.259       .  A
O7           C14   1.265       .  A
C8           O15   1.255       .  A
C8            O9   1.258       .  A
C8         C1657   1.487       .  S
C10          O12   1.257       .  A
C10          O16   1.265       .  A
C10        C1472   1.492       .  S
C14        C1500   1.478       .  S
In17         O19   2.208       .  S
In17         O20   2.254       .  S
In17         O28   2.274   1_545  S
In17         O22   2.233       .  S
In17         O24   2.245       .  S
In17         O25   2.241       .  S
In17         O26   2.215       .  S
In17         O29   2.256   1_545  S
C18          O24   1.260       .  A
C18          O26   1.262       .  A
C18        C1503   1.470       .  S
O19          C27   1.260       .  A
O20          C27   1.265       .  A
C21          O28   1.262   1_545  A
C21          O22   1.257       .  A
C21        C1542   1.479       .  S
C23          O25   1.258   1_565  A
C23          O29   1.269       .  A
C23        C1444   1.491       .  S
C27        C1458   1.473       .  S
In30         O32   2.217       .  S
In30         O33   2.241       .  S
In30         O41   2.292       .  S
In30         O35   2.198       .  S
In30         O37   2.247       .  S
In30         O38   2.252       .  S
In30         O39   2.191       .  S
In30         O42   2.258       .  S
C31          O37   1.265       .  A
C31          O39   1.262       .  A
C31        C1461   1.460       .  S
O32          C40   1.260       .  A
O33          C40   1.263       .  A
C34          O41   1.268       .  A
C34          O35   1.254       .  A
C34        C1601   1.486       .  S
C36          O38   1.261       .  A
C36          O42   1.270       .  A
C36        C1430   1.498       .  S
C40        C1486   1.469       .  S
C43        C1388   1.601       .  S
C43        C1402   1.588       .  S
C43        C1416   1.588       .  S
C43        C1475   1.586       .  S
C44        C1346   1.577       .  S
C44        C1360   1.591       .  S
C44        C1374   1.587       .  S
C44        C1671   1.587       .  S
C45        C1304   1.577       .  S
C45        C1318   1.599       .  S
C45        C1332   1.597       .  S
C45        C1531   1.573       .  S
In46         O48   2.220       .  S
In46         O49   2.294       .  S
In46         O57   2.283       .  S
In46         O51   2.228       .  S
In46         O53   2.258       .  S
In46         O54   2.265       .  S
In46         O55   2.223       .  S
In46         O58   2.214       .  S
C47          O53   1.263       .  A
C47          O55   1.258       .  A
C47        C1276   1.475       .  S
O48          C56   1.255       .  A
O49          C56   1.268       .  A
C50          O57   1.260       .  A
C50          O51   1.257       .  A
C50        C1363   1.493       .  S
C52          O54   1.265       .  A
C52          O58   1.259       .  A
C52        C1290   1.481       .  S
C56        C1262   1.488       .  S
In59         O61   2.257       .  S
In59         O62   2.251       .  S
In59         O70   2.308       .  S
In59         O64   2.233       .  S
In59         O66   2.263       .  S
In59         O67   2.255       .  S
In59         O68   2.214       .  S
In59         O71   2.202       .  S
C60          O66   1.264       .  A
C60          O68   1.261       .  A
C60        C1293   1.472       .  S
O61          C69   1.272       .  A
O62          C69   1.259       .  A
C63          O70   1.264       .  A
C63          O64   1.256       .  A
C63        C1405   1.495       .  S
C65          O67   1.262       .  A
C65          O71   1.259       .  A
C65        C1248   1.466       .  S
C69        C1234   1.495       .  S
In72         O74   2.277       .  S
In72         O75   2.249       .  S
In72         O83   2.299       .  S
In72         O77   2.213       .  S
In72         O79   2.251       .  S
In72         O80   2.261       .  S
In72         O81   2.194       .  S
In72         O84   2.206       .  S
C73          O79   1.263       .  A
C73          O81   1.261       .  A
C73        C1251   1.462       .  S
O74          C82   1.268       .  A
O75          C82   1.258       .  A
C76          O83   1.267       .  A
C76          O77   1.255       .  A
C76        C1335   1.489       .  S
C78          O80   1.266       .  A
C78          O84   1.260       .  A
C78        C1279   1.478       .  S
C82        C1570   1.488       .  S
C85        C1192   1.594       .  S
C85        C1206   1.566       .  S
C85        C1220   1.588       .  S
C85        C1237   1.599       .  S
C86        C1150   1.574       .  S
C86        C1167   1.568       .  S
C86        C1181   1.585       .  S
C86        C1419   1.578       .  S
C87        C1108   1.570       .  S
C87        C1125   1.600       .  S
C87        C1136   1.572       .  S
C87        C1321   1.592   1_455  S
In88         O90   2.210       .  S
In88         O91   2.236       .  S
In88         O99   2.244       .  S
In88         O93   2.245       .  S
In88         O95   2.225       .  S
In88         O96   2.239       .  S
In88         O97   2.276       .  S
In88        O100   2.242       .  S
C89          O95   1.255       .  A
C89          O97   1.259       .  A
C89        C1080   1.480       .  S
O90          C98   1.262       .  A
O91          C98   1.266       .  A
C92          O99   1.257       .  A
C92          O93   1.260       .  A
C92        C1209   1.476       .  S
C94          O96   1.260       .  A
C94         O100   1.264       .  A
C94        C1066   1.480       .  S
C98        C1094   1.472       .  S
In101       O103   2.216       .  S
In101       O104   2.237       .  S
In101       O112   2.259       .  S
In101       O106   2.242       .  S
In101       O108   2.238       .  S
In101       O109   2.233       .  S
In101       O110   2.221       .  S
In101       O113   2.280       .  S
C102        O108   1.263       .  A
C102        O110   1.262       .  A
C102       C1097   1.473       .  S
O103        C111   1.263       .  A
O104        C111   1.264       .  A
C105        O112   1.258       .  A
C105        O106   1.260       .  A
C105       C1139   1.475       .  S
C107        O109   1.258       .  A
C107        O113   1.266       .  A
C107       C1349   1.483       .  S
C111       C1052   1.476       .  S
In114       O116   2.211       .  S
In114       O117   2.248       .  S
In114       O125   2.272       .  S
In114       O119   2.247       .  S
In114       O121   2.253       .  S
In114       O122   2.264       .  S
In114       O123   2.217       .  S
In114       O126   2.275       .  S
C115        O121   1.262       .  A
C115        O123   1.259       .  A
C115       C1055   1.470       .  S
O116        C124   1.260       .  A
O117        C124   1.266       .  A
C118        O125   1.258       .  A
C118        O119   1.257       .  A
C118       C1164   1.484       .  S
C120        O122   1.257       .  A
C120        O126   1.266       .  A
C120       C1038   1.502       .  S
C124       C1083   1.479       .  S
C127        C996   1.581       .  S
C127       C1010   1.567       .  S
C127       C1027   1.575       .  S
C127       C1069   1.574       .  S
C128        C954   1.596       .  S
C128        C968   1.574       .  S
C128        C982   1.581       .  S
C128       C1223   1.595       .  S
C129        C912   1.579       .  S
C129        C926   1.599       .  S
C129        C940   1.575   1_565  S
C129       C1122   1.571   1_565  S
In130       O132   2.256       .  S
In130       O133   2.230       .  S
In130       O141   2.276       .  S
In130       O135   2.215       .  S
In130       O137   2.235       .  S
In130       O138   2.250       .  S
In130       O139   2.250       .  S
In130       O142   2.193       .  S
C131        O137   1.257       .  A
C131        O139   1.261       .  A
C131        C898   1.473       .  S
O132        C140   1.265       .  A
O133        C140   1.257       .  A
C134        O141   1.257       .  A
C134        O135   1.255       .  A
C134       C1013   1.477       .  S
C136        O138   1.269       .  A
C136        O142   1.265       .  A
C136        C887   1.476       .  S
C140        C873   1.475       .  S
In143       O145   2.278       .  S
In143       O146   2.262       .  S
In143       O154   2.279       .  S
In143       O148   2.269       .  S
In143       O150   2.242       .  S
In143       O151   2.228       .  S
In143       O152   2.232       .  S
In143       O155   2.220       .  S
C144        O150   1.260       .  A
C144        O152   1.260       .  A
C144        C856   1.478       .  S
O145        C153   1.266       .  A
O146        C153   1.256       .  A
C147        O154   1.258       .  A
C147        O148   1.257       .  A
C147        C971   1.486       .  S
C149        O151   1.265       .  A
C149        O155   1.264       .  A
C149        C901   1.477       .  S
C153        C842   1.490       .  S
In156       O158   2.245       .  S
In156       O159   2.262   1_565  S
In156       O167   2.265   1_565  S
In156       O161   2.253   1_565  S
In156       O163   2.247       .  S
In156       O164   2.243       .  S
In156       O165   2.214       .  S
In156       O168   2.234       .  S
C157        O163   1.263       .  A
C157        O165   1.263       .  A
C157        C884   1.475       .  S
O158        C166   1.256   1_565  A
O159        C166   1.267       .  A
C160        O167   1.257       .  A
C160        O161   1.259       .  A
C160        C943   1.485       .  S
C162        O164   1.263       .  A
C162        O168   1.260       .  A
C162        C859   1.481       .  S
C166       C1153   1.485       .  S
C169        C814   1.557       .  S
C169        C828   1.581       .  S
C169        C985   1.594       .  S
C169       C1265   1.596       .  S
C170        C786   1.570       .  S
C170        C800   1.590       .  S
C170        C999   1.595   1_655  S
C170       C1377   1.590       .  S
C171        C758   1.573       .  S
C171        C772   1.579       .  S
C171        C845   1.576       .  S
C171       C1391   1.572   1_565  S
In172       O174   2.205       .  S
In172       O175   2.260       .  S
In172       O183   2.296   1_565  S
In172       O177   2.217       .  S
In172       O179   2.206       .  S
In172       O180   2.248       .  S
In172       O181   2.248       .  S
In172       O184   2.285   1_565  S
C173        O179   1.258       .  A
C173        O181   1.260       .  A
C173        C744   1.469       .  S
O174        C182   1.260       .  A
O175        C182   1.268       .  A
C176        O183   1.262   1_565  A
C176        O177   1.255       .  A
C176        C775   1.490       .  S
C178        O180   1.257   1_545  A
C178        O184   1.265       .  A
C178       C1307   1.493       .  S
C182        C733   1.479       .  S
In185       O187   2.199       .  S
In185       O188   2.237   1_655  S
In185       O196   2.299   1_655  S
In185       O190   2.225       .  S
In185       O192   2.246       .  S
In185       O193   2.253       .  S
In185       O194   2.227       .  S
In185       O197   2.253   1_655  S
C186        O192   1.263       .  A
C186        O194   1.265       .  A
C186        C730   1.473       .  S
O187        C195   1.263       .  A
O188        C195   1.263   1_455  A
C189        O196   1.258       .  A
C189        O190   1.258   1_455  A
C189        C803   1.489       .  S
C191        O193   1.258   1_455  A
C191        O197   1.268       .  A
C191        C915   1.495       .  S
C195        C716   1.466       .  S
In198       O200   2.197       .  S
In198       O201   2.226       .  S
In198       O209   2.248       .  S
In198       O203   2.236       .  S
In198       O205   2.216       .  S
In198       O206   2.227       .  S
In198       O207   2.246       .  S
In198       O210   2.259       .  S
C199        O205   1.261       .  A
C199        O207   1.260       .  A
C199        C719   1.468       .  S
O200        C208   1.263       .  A
O201        C208   1.265       .  A
C202        O209   1.254       .  A
C202        O203   1.257       .  A
C202        C817   1.469       .  S
C204        O206   1.254       .  A
C204        O210   1.264       .  A
C204        C702   1.471       .  S
C208        C747   1.470       .  S
C211        C677   1.580   1_556  S
C211        C688   1.561       .  S
C211       C1195   1.581       .  S
C211       C1612   1.597       .  S
C212        C646   1.580       .  S
C212        C663   1.606   1_545  S
C212       C1178   1.616       .  S
C212       C1433   1.602       .  S
C213        C618   1.605       .  S
C213        C632   1.569       .  S
C213       C1041   1.594       .  S
C213       C1643   1.584   1_455  S
In214       O216   2.251   1_455  S
In214       O217   2.228       .  S
In214       O225   2.244       .  S
In214       O219   2.244       .  S
In214       O221   2.254       .  S
In214       O222   2.238       .  S
In214       O223   2.223       .  S
In214       O226   2.214       .  S
C215        O221   1.261       .  A
C215        O223   1.259       .  A
C215        C590   1.478       .  S
O216        C224   1.266       .  A
O217        C224   1.258   1_455  A
C218        O225   1.256       .  A
C218        O219   1.263       .  A
C218        C635   1.474   1_455  S
C220        O222   1.265       .  A
C220        O226   1.259       .  A
C220        C607   1.472       .  S
C224       C1517   1.475       .  S
In227       O229   2.264   1_545  S
In227       O230   2.249       .  S
In227       O238   2.277   1_545  S
In227       O232   2.217       .  S
In227       O234   2.241       .  S
In227       O235   2.261       .  S
In227       O236   2.220       .  S
In227       O239   2.212       .  S
C228        O234   1.259       .  A
C228        O236   1.260       .  A
C228        C579   1.465       .  S
O229        C237   1.266       .  A
O230        C237   1.260   1_545  A
C231        O238   1.261       .  A
C231        O232   1.256   1_565  A
C231        C649   1.482       .  S
C233        O235   1.266       .  A
C233        O239   1.259       .  A
C233        C593   1.478       .  S
C237        C562   1.495       .  S
In240       O242   2.254   1_554  S
In240       O243   2.250   1_554  S
In240       O251   2.259   1_554  S
In240       O245   2.233   1_554  S
In240       O247   2.226       .  S
In240       O248   2.246   1_554  S
In240       O249   2.213       .  S
In240       O252   2.216       .  S
C241        O247   1.262       .  A
C241        O249   1.260       .  A
C241        C604   1.469       .  S
O242        C250   1.256       .  A
O243        C250   1.267       .  A
C244        O251   1.259       .  A
C244        O245   1.258       .  A
C244        C691   1.476       .  S
C246        O248   1.262   1_554  A
C246        O252   1.260       .  A
C246        C576   1.479       .  S
C250       C1111   1.487       .  S
C253        C534   1.606       .  S
C253        C551   1.569       .  S
C253        C660   1.603       .  S
C253        C870   1.575       .  S
C254        C509   1.593       .  S
C254        C520   1.565       .  S
C254        C621   1.580       .  S
C254       C1024   1.573       .  S
C255        C478   1.574       .  S
C255        C495   1.578       .  S
C255        C565   1.612   1_556  S
C255        C929   1.603       .  S
In256       O258   2.206       .  S
In256       O259   2.260       .  S
In256       O267   2.287       .  S
In256       O261   2.224       .  S
In256       O263   2.256       .  S
In256       O264   2.241       .  S
In256       O265   2.199       .  S
In256       O268   2.260       .  S
C257        O263   1.264       .  A
C257        O265   1.260       .  A
C257        C450   1.466       .  S
O258        C266   1.257       .  A
O259        C266   1.263       .  A
C260        O267   1.265       .  A
C260        O261   1.256       .  A
C260        C537   1.486       .  S
C262        O264   1.260       .  A
C262        O268   1.270       .  A
C262        C436   1.488       .  S
C266        C464   1.470       .  S
In269       O271   2.225   1_556  S
In269       O272   2.250       .  S
In269       O280   2.277       .  S
In269       O274   2.251       .  S
In269       O276   2.231   1_556  S
In269       O277   2.267       .  S
In269       O278   2.220   1_556  S
In269       O281   2.265       .  S
C270        O276   1.260       .  A
C270        O278   1.262       .  A
C270        C467   1.466       .  S
O271        C279   1.262       .  A
O272        C279   1.266   1_556  A
C273        O280   1.260       .  A
C273        O274   1.255       .  A
C273        C492   1.490       .  S
C275        O277   1.258       .  A
C275        O281   1.269       .  A
C275        C957   1.497       .  S
C279        C425   1.483       .  S
In282       O284   2.202       .  S
In282       O285   2.259       .  S
In282       O293   2.253       .  S
In282       O287   2.252       .  S
In282       O289   2.250       .  S
In282       O290   2.274       .  S
In282       O291   2.232       .  S
In282       O294   2.225       .  S
C283        O289   1.262       .  A
C283        O291   1.259       .  A
C283        C422   1.474       .  S
O284        C292   1.257       .  A
O285        C292   1.265       .  A
C286        O293   1.259       .  A
C286        O287   1.262       .  A
C286        C523   1.485       .  S
C288        O290   1.268       .  A
C288        O294   1.256       .  A
C288        C674   1.481       .  S
C292        C453   1.481       .  S
C295        C411   1.582       .  S
C295        C439   1.610       .  S
C295        C831   1.611       .  S
C295       C1587   1.601       .  S
C296        C394   1.554       .  S
C296        C548   1.595       .  S
C296        C761   1.601       .  S
C296       C1447   1.592       .  S
C297        C380   1.606       .  S
C297        C481   1.588   1_655  S
C297        C705   1.570       .  S
C297       C1556   1.581       .  S
In298       O300   2.243       .  S
In298       O301   2.280       .  S
In298       O309   2.268       .  S
In298       O303   2.251       .  S
In298       O305   2.257       .  S
In298       O306   2.263       .  S
In298       O307   2.218       .  S
In298       O310   2.220       .  S
C299        O305   1.263       .  A
C299        O307   1.259       .  A
C299        C352   1.472       .  S
O300        C308   1.255       .  A
O301        C308   1.267       .  A
C302        O309   1.258       .  A
C302        O303   1.260       .  A
C302        C408   1.494       .  S
C304        O306   1.263       .  A
C304        O310   1.260       .  A
C304        C366   1.486       .  S
C308       C1626   1.492       .  S
In311       O313   2.245       .  S
In311       O314   2.255       .  S
In311       O322   2.267       .  S
In311       O316   2.203       .  S
In311       O318   2.252       .  S
In311       O319   2.235       .  S
In311       O320   2.202       .  S
In311       O323   2.225       .  S
C312        O318   1.264       .  A
C312        O320   1.262       .  A
C312        C338   1.472       .  S
O313        C321   1.257       .  A
O314        C321   1.265       .  A
C315        O322   1.262       .  A
C315        O316   1.255       .  A
C315        C397   1.462       .  S
C317        O319   1.263       .  A
C317        O323   1.263       .  A
C317        C355   1.477       .  S
C321        C789   1.474       .  S
In324       O326   2.261   1_655  S
In324       O327   2.278   1_655  S
In324       O335   2.311   1_655  S
In324       O329   2.236       .  S
In324       O331   2.264       .  S
In324       O332   2.269       .  S
In324       O333   2.226       .  S
In324       O336   2.199       .  S
C325        O331   1.263       .  A
C325        O333   1.261       .  A
C325        C369   1.472       .  S
O326        C334   1.258       .  A
O327        C334   1.269       .  A
C328        O335   1.263       .  A
C328        O329   1.258   1_455  A
C328        C383   1.504       .  S
C330        O332   1.266       .  A
C330        O336   1.259       .  A
C330        C341   1.475       .  S
C334        C506   1.499       .  S
C337        C338   1.405       .  A
C337        C342   1.405       .  A
C337        H344   1.082       .  S
C338        C339   1.411       .  A
C339        C340   1.393       .  A
C339        N346   1.434       .  S
C340        C341   1.404       .  A
C340        H345   1.084       .  S
C341        C342   1.407       .  A
C342        N343   1.432       .  S
N343        H347   1.045       .  S
N343        H348   1.045   1_655  S
N346        H349   1.045       .  S
N346        H350   1.043       .  S
C351        C352   1.403       .  A
C351        C356   1.406       .  A
C351        H358   1.084       .  S
C352        C353   1.406       .  A
C353        C354   1.399       .  A
C353        N360   1.433       .  S
C354        C355   1.403       .  A
C354        H359   1.084       .  S
C355        C356   1.414       .  A
C356        N357   1.437       .  S
N357        H361   1.046       .  S
N357        H362   1.045       .  S
N360        H363   1.045       .  S
N360        H364   1.046       .  S
C365        C366   1.407       .  A
C365        C370   1.398       .  A
C365        H372   1.084       .  S
C366        C367   1.420       .  A
C367        C368   1.404       .  A
C367        N374   1.432       .  S
C368        C369   1.402       .  A
C368        H373   1.084       .  S
C369        C370   1.404       .  A
C370        N371   1.433       .  S
N371        H375   1.046       .  S
N371        H376   1.045       .  S
N374        H377   1.045       .  S
N374        H378   1.045       .  S
C379        C380   1.424       .  A
C379        C384   1.394       .  A
C379        H386   1.077       .  S
C380        C381   1.440   1_655  A
C381        C382   1.426       .  A
C381        N388   1.439       .  S
C382        C383   1.410       .  A
C382        H387   1.083       .  S
C383        C384   1.404   1_455  A
C384        N385   1.435       .  S
N385        H389   1.046       .  S
N385        H390   1.046       .  S
N388        H391   1.043       .  S
N388        H392   1.043       .  S
C393        C394   1.411       .  A
C393        C398   1.399       .  A
C393        H400   1.081       .  S
C394        C395   1.430       .  A
C395        C396   1.398       .  A
C395        N402   1.434       .  S
C396        C397   1.394       .  A
C396        H401   1.084       .  S
C397        C398   1.414       .  A
C398        N399   1.439       .  S
N399        H403   1.047       .  S
N399        H404   1.041       .  S
N402        H405   1.045       .  S
N402        H406   1.046       .  S
C407        C408   1.398       .  A
C407        C412   1.400       .  A
C407        H414   1.084       .  S
C408        C409   1.418       .  A
C409        C410   1.407       .  A
C409        N416   1.432       .  S
C410        C411   1.415       .  A
C410        H415   1.082       .  S
C411        C412   1.438       .  A
C412        N413   1.437       .  S
N413        H417   1.045       .  S
N413        H418   1.046       .  S
N416        H419   1.045       .  S
N416        H420   1.045       .  S
C421        C422   1.404       .  A
C421        C426   1.403       .  A
C421        H428   1.084       .  S
C422        C423   1.409       .  A
C423        C424   1.405       .  A
C423        N430   1.438       .  S
C424        C425   1.407       .  A
C424        H429   1.084       .  S
C425        C426   1.411       .  A
C426        N427   1.432   1_554  S
N427        H431   1.046       .  S
N427        H432   1.046       .  S
N430        H433   1.046       .  S
N430        H434   1.045       .  S
C435        C436   1.402       .  A
C435        C440   1.412       .  A
C435        H442   1.084       .  S
C436        C437   1.391       .  A
C437        C438   1.397       .  A
C437        N444   1.433       .  S
C438        C439   1.435       .  A
C438        H443   1.075       .  S
C439        C440   1.444       .  A
C440        N441   1.427       .  S
N441        H445   1.042       .  S
N441        H446   1.042       .  S
N444        H447   1.046       .  S
N444        H448   1.046       .  S
C449        C450   1.397       .  A
C449        C454   1.393       .  A
C449        H456   1.085       .  S
C450        C451   1.412       .  A
C451        C452   1.400       .  A
C451        N458   1.433       .  S
C452        C453   1.407       .  A
C452        H457   1.084       .  S
C453        C454   1.420       .  A
C454        N455   1.433       .  S
N455        H459   1.046       .  S
N455        H460   1.044       .  S
N458        H461   1.045       .  S
N458        H462   1.045       .  S
C463        C464   1.405       .  A
C463        C468   1.398       .  A
C463        H470   1.084       .  S
C464        C465   1.408       .  A
C465        C466   1.400       .  A
C465        N472   1.432       .  S
C466        C467   1.404       .  A
C466        H471   1.084       .  S
C467        C468   1.405       .  A
C468        N469   1.433       .  S
N469        H473   1.045       .  S
N469        H474   1.046       .  S
N472        H475   1.045       .  S
N472        H476   1.046       .  S
C477        C478   1.413       .  A
C477        C482   1.411   1_556  A
C477        H484   1.079       .  S
C478        C479   1.423   1_556  A
C479        C480   1.409       .  A
C479        N486   1.434       .  S
C480        C481   1.415       .  A
C480        H485   1.074       .  S
C481        C482   1.429       .  A
C482        N483   1.432   1_554  S
N483        H487   1.048   1_455  S
N483        H488   1.043       .  S
N486        H489   1.045       .  S
N486        H490   1.046       .  S
C491        C492   1.404       .  A
C491        C496   1.413       .  A
C491        H498   1.084       .  S
C492        C493   1.412       .  A
C493        C494   1.400       .  A
C493        N500   1.433       .  S
C494        C495   1.421       .  A
C494        H499   1.084       .  S
C495        C496   1.429       .  A
C496        N497   1.437       .  S
N497        H501   1.047       .  S
N497        H502   1.044       .  S
N500        H503   1.045       .  S
N500        H504   1.044       .  S
C505        C506   1.392       .  A
C505        C510   1.406       .  A
C505        H512   1.084       .  S
C506        C507   1.411       .  A
C507        C508   1.415       .  A
C507        N514   1.431       .  S
C508        C509   1.420       .  A
C508        H513   1.083       .  S
C509        C510   1.444       .  A
C510        N511   1.432       .  S
N511        H515   1.046       .  S
N511        H516   1.046       .  S
N514        H517   1.045       .  S
N514        H518   1.045   1_455  S
C519        C520   1.412       .  A
C519        C524   1.407       .  A
C519        H526   1.080       .  S
C520        C521   1.426       .  A
C521        C522   1.404       .  A
C521        N528   1.433       .  S
C522        C523   1.399       .  A
C522        H527   1.084       .  S
C523        C524   1.412       .  A
C524        N525   1.432       .  S
N525        H529   1.045       .  S
N525        H530   1.047       .  S
N528        H531   1.046       .  S
N528        H532   1.045       .  S
C533        C534   1.432       .  A
C533        C538   1.405       .  A
C533        H540   1.075       .  S
C534        C535   1.448       .  A
C535        C536   1.401       .  A
C535        N542   1.441       .  S
C536        C537   1.396       .  A
C536        H541   1.085       .  S
C537        C538   1.402       .  A
C538        N539   1.433       .  S
N539        H543   1.045       .  S
N539        H544   1.046       .  S
N542        H545   1.033       .  S
N542        H546   1.046       .  S
C547        C548   1.418       .  A
C547        C552   1.408       .  A
C547        H554   1.071       .  S
C548        C549   1.427       .  A
C549        C550   1.394       .  A
C549        N556   1.434       .  S
C550        C551   1.410       .  A
C550        H555   1.084       .  S
C551        C552   1.437       .  A
C552        N553   1.435       .  S
N553        H557   1.033       .  S
N553        H558   1.047       .  S
N556        H559   1.043       .  S
N556        H560   1.042       .  S
C561        C562   1.398       .  A
C561        C566   1.412       .  A
C561        H568   1.084       .  S
C562        C563   1.406       .  A
C563        C564   1.402       .  A
C563        N570   1.434       .  S
C564        C565   1.432       .  A
C564        H569   1.071       .  S
C565        C566   1.442       .  A
C566        N567   1.432       .  S
N567        H571   1.047       .  S
N567        H572   1.044       .  S
N570        H573   1.045       .  S
N570        H574   1.046       .  S
C575        C576   1.408       .  A
C575        C580   1.400       .  A
C575        H582   1.083       .  S
C576        C577   1.417       .  A
C577        C578   1.397       .  A
C577        N584   1.432   1_554  S
C578        C579   1.401       .  A
C578        H583   1.084       .  S
C579        C580   1.405       .  A
C580        N581   1.438       .  S
N581        H585   1.045       .  S
N581        H586   1.046       .  S
N584        H587   1.045       .  S
N584        H588   1.044       .  S
C589        C590   1.407       .  A
C589        C594   1.405       .  A
C589        H596   1.084       .  S
C590        C591   1.409       .  A
C591        C592   1.400       .  A
C591        N598   1.433       .  S
C592        C593   1.404       .  A
C592        H597   1.084       .  S
C593        C594   1.407       .  A
C594        N595   1.432       .  S
N595        H599   1.044       .  S
N595        H600   1.046       .  S
N598        H601   1.046       .  S
N598        H602   1.045       .  S
C603        C604   1.402       .  A
C603        C608   1.398       .  A
C603        H610   1.084       .  S
C604        C605   1.410       .  A
C605        C606   1.400       .  A
C605        N612   1.433       .  S
C606        C607   1.402       .  A
C606        H611   1.084       .  S
C607        C608   1.411       .  A
C608        N609   1.433       .  S
N609        H613   1.045       .  S
N609        H614   1.046       .  S
N612        H615   1.046       .  S
N612        H616   1.046       .  S
C617        C618   1.425       .  A
C617        C622   1.416       .  A
C617        H624   1.062   1_455  S
C618        C619   1.432       .  A
C619        C620   1.404       .  A
C619        N626   1.432       .  S
C620        C621   1.416       .  A
C620        H625   1.082       .  S
C621        C622   1.415       .  A
C622        N623   1.428       .  S
N623        H627   1.046   1_455  S
N623        H628   1.046       .  S
N626        H629   1.045       .  S
N626        H630   1.046       .  S
C631        C632   1.426   1_655  A
C631        C636   1.396       .  A
C631        H638   1.082       .  S
C632        C633   1.429       .  A
C633        C634   1.406       .  A
C633        N640   1.430       .  S
C634        C635   1.404   1_455  A
C634        H639   1.084       .  S
C635        C636   1.395       .  A
C636        N637   1.433       .  S
N637        H641   1.046       .  S
N637        H642   1.046       .  S
N640        H643   1.045       .  S
N640        H644   1.039       .  S
C645        C646   1.419       .  A
C645        C650   1.408   1_545  A
C645        H652   1.077       .  S
C646        C647   1.448       .  A
C647        C648   1.394       .  A
C647        N654   1.443       .  S
C648        C649   1.394   1_545  A
C648        H653   1.085       .  S
C649        C650   1.405       .  A
C650        N651   1.432       .  S
N651        H655   1.046   1_565  S
N651        H656   1.046       .  S
N654        H657   1.040       .  S
N654        H658   1.046       .  S
C659        C660   1.402       .  A
C659        C664   1.403       .  A
C659        H666   1.076       .  S
C660        C661   1.440       .  A
C661        C662   1.412       .  A
C661        N668   1.429       .  S
C662        C663   1.416       .  A
C662        H667   1.083   1_565  S
C663        C664   1.441       .  A
C664        N665   1.425       .  S
N665        H669   1.047       .  S
N665        H670   1.046       .  S
N668        H671   1.043       .  S
N668        H672   1.038       .  S
C673        C674   1.407       .  A
C673        C678   1.410       .  A
C673        H680   1.084       .  S
C674        C675   1.402       .  A
C675        C676   1.394       .  A
C675        N682   1.433       .  S
C676        C677   1.427       .  A
C676        H681   1.083       .  S
C677        C678   1.423       .  A
C678        N679   1.430   1_554  S
N679        H683   1.046       .  S
N679        H684   1.046       .  S
N682        H685   1.045       .  S
N682        H686   1.046       .  S
C687        C688   1.413       .  A
C687        C692   1.403       .  A
C687        H694   1.078       .  S
C688        C689   1.432       .  A
C689        C690   1.398       .  A
C689        N696   1.435       .  S
C690        C691   1.393       .  A
C690        H695   1.084       .  S
C691        C692   1.413       .  A
C692        N693   1.433       .  S
N693        H697   1.045       .  S
N693        H698   1.045   1_556  S
N696        H699   1.047       .  S
N696        H700   1.045       .  S
C701        C702   1.397   1_554  A
C701        C706   1.401       .  A
C701        H708   1.084   1_554  S
C702        C703   1.410   1_556  A
C703        C704   1.397       .  A
C703        N710   1.431   1_554  S
C704        C705   1.416       .  A
C704        H709   1.084   1_655  S
C705        C706   1.429       .  A
C706        N707   1.432       .  S
N707        H711   1.046       .  S
N707        H712   1.045   1_554  S
N710        H713   1.043       .  S
N710        H714   1.045   1_556  S
C715        C716   1.401       .  A
C715        C720   1.394       .  A
C715        H722   1.084       .  S
C716        C717   1.410       .  A
C717        C718   1.404       .  A
C717        N724   1.438   1_655  S
C718        C719   1.404       .  A
C718        H723   1.082       .  S
C719        C720   1.405       .  A
C720        N721   1.433       .  S
N721        H725   1.045       .  S
N721        H726   1.046       .  S
N724        H727   1.045       .  S
N724        H728   1.046       .  S
C729        C730   1.404       .  A
C729        C734   1.401       .  A
C729        H736   1.084       .  S
C730        C731   1.406       .  A
C731        C732   1.402       .  A
C731        N738   1.438       .  S
C732        C733   1.407       .  A
C732        H737   1.084       .  S
C733        C734   1.415       .  A
C734        N735   1.432       .  S
N735        H739   1.045       .  S
N735        H740   1.046       .  S
N738        H741   1.045       .  S
N738        H742   1.046       .  S
C743        C744   1.402       .  A
C743        C748   1.396       .  A
C743        H750   1.084       .  S
C744        C745   1.408       .  A
C745        C746   1.400       .  A
C745        N752   1.433       .  S
C746        C747   1.404       .  A
C746        H751   1.084       .  S
C747        C748   1.412       .  A
C748        N749   1.439       .  S
N749        H753   1.045       .  S
N749        H754   1.046       .  S
N752        H755   1.045       .  S
N752        H756   1.046       .  S
C757        C758   1.416       .  A
C757        C762   1.415       .  A
C757        H764   1.082   1_565  S
C758        C759   1.405       .  A
C759        C760   1.390       .  A
C759        N766   1.429       .  S
C760        C761   1.426       .  A
C760        H765   1.082       .  S
C761        C762   1.438       .  A
C762        N763   1.429   1_565  S
N763        H767   1.047       .  S
N763        H768   1.038   1_545  S
N766        H769   1.046       .  S
N766        H770   1.045       .  S
C771        C772   1.421   1_545  A
C771        C776   1.416       .  A
C771        H778   1.083       .  S
C772        C773   1.434       .  A
C773        C774   1.397       .  A
C773        N780   1.432       .  S
C774        C775   1.397       .  A
C774        H779   1.084       .  S
C775        C776   1.408   1_565  A
C776        N777   1.436       .  S
N777        H781   1.044       .  S
N777        H782   1.047       .  S
N780        H783   1.046       .  S
N780        H784   1.046       .  S
C785        C786   1.419       .  A
C785        C790   1.401       .  A
C785        H792   1.083       .  S
C786        C787   1.434       .  A
C787        C788   1.410       .  A
C787        N794   1.434       .  S
C788        C789   1.394       .  A
C788        H793   1.084       .  S
C789        C790   1.407       .  A
C790        N791   1.429       .  S
N791        H795   1.045       .  S
N791        H796   1.046       .  S
N794        H797   1.043       .  S
N794        H798   1.047       .  S
C799        C800   1.424   1_455  A
C799        C804   1.418       .  A
C799        H806   1.084       .  S
C800        C801   1.440       .  A
C801        C802   1.394       .  A
C801        N808   1.431       .  S
C802        C803   1.391   1_655  A
C802        H807   1.085       .  S
C803        C804   1.408       .  A
C804        N805   1.430       .  S
N805        H809   1.045       .  S
N805        H810   1.046       .  S
N808        H811   1.047       .  S
N808        H812   1.045       .  S
C813        C814   1.413       .  A
C813        C818   1.406       .  A
C813        H820   1.080       .  S
C814        C815   1.430       .  A
C815        C816   1.393       .  A
C815        N822   1.430       .  S
C816        C817   1.389       .  A
C816        H821   1.085       .  S
C817        C818   1.410       .  A
C818        N819   1.433       .  S
N819        H823   1.045       .  S
N819        H824   1.046       .  S
N822        H825   1.046   1_556  S
N822        H826   1.046       .  S
C827        C828   1.409       .  A
C827        C832   1.415   1_556  A
C827        H834   1.082       .  S
C828        C829   1.435   1_556  A
C829        C830   1.400       .  A
C829        N836   1.435       .  S
C830        C831   1.407       .  A
C830        H835   1.064       .  S
C831        C832   1.432       .  A
C832        N833   1.435       .  S
N833        H837   1.039       .  S
N833        H838   1.046       .  S
N836        H839   1.046       .  S
N836        H840   1.046       .  S
C841        C842   1.401       .  A
C841        C846   1.411       .  A
C841        H848   1.084       .  S
C842        C843   1.408       .  A
C843        C844   1.410       .  A
C843        N850   1.432       .  S
C844        C845   1.417       .  A
C844        H849   1.081       .  S
C845        C846   1.425       .  A
C846        N847   1.429       .  S
N847        H851   1.045       .  S
N847        H852   1.045   1_565  S
N850        H853   1.046       .  S
N850        H854   1.045       .  S
C855        C856   1.404       .  A
C855        C860   1.400       .  A
C855        H862   1.084       .  S
C856        C857   1.414       .  A
C857        C858   1.405       .  A
C857        N864   1.438       .  S
C858        C859   1.404       .  A
C858        H863   1.083       .  S
C859        C860   1.411       .  A
C860        N861   1.433       .  S
N861        H865   1.046       .  S
N861        H866   1.045       .  S
N864        H867   1.045       .  S
N864        H868   1.046       .  S
C869        C870   1.419       .  A
C869        C874   1.407       .  A
C869        H876   1.068       .  S
C870        C871   1.440       .  A
C871        C872   1.401       .  A
C871        N878   1.438       .  S
C872        C873   1.395       .  A
C872        H877   1.085       .  S
C873        C874   1.398       .  A
C874        N875   1.432       .  S
N875        H879   1.042       .  S
N875        H880   1.047       .  S
N878        H881   1.034       .  S
N878        H882   1.051       .  S
C883        C884   1.407       .  A
C883        C888   1.406       .  A
C883        H890   1.083       .  S
C884        C885   1.406       .  A
C885        C886   1.397       .  A
C885        N892   1.433       .  S
C886        C887   1.403       .  A
C886        H891   1.084       .  S
C887        C888   1.409       .  A
C888        N889   1.432       .  S
N889        H893   1.045       .  S
N889        H894   1.046       .  S
N892        H895   1.046       .  S
N892        H896   1.045       .  S
C897        C898   1.404       .  A
C897        C902   1.403       .  A
C897        H904   1.084       .  S
C898        C899   1.406       .  A
C899        C900   1.400       .  A
C899        N906   1.432       .  S
C900        C901   1.406       .  A
C900        H905   1.084       .  S
C901        C902   1.413       .  A
C902        N903   1.438       .  S
N903        H907   1.046       .  S
N903        H908   1.045       .  S
N906        H909   1.046       .  S
N906        H910   1.046       .  S
C911        C912   1.426       .  A
C911        C916   1.393       .  A
C911        H918   1.077       .  S
C912        C913   1.421       .  A
C913        C914   1.416       .  A
C913        N920   1.433       .  S
C914        C915   1.412       .  A
C914        H919   1.083       .  S
C915        C916   1.407       .  A
C916        N917   1.434       .  S
N917        H921   1.045       .  S
N917        H922   1.045       .  S
N920        H923   1.045       .  S
N920        H924   1.045   1_455  S
C925        C926   1.413       .  A
C925        C930   1.413       .  A
C925        H932   1.082       .  S
C926        C927   1.433       .  A
C927        C928   1.413       .  A
C927        N934   1.431   1_565  S
C928        C929   1.407       .  A
C928        H933   1.064       .  S
C929        C930   1.438       .  A
C930        N931   1.432       .  S
N931        H935   1.045       .  S
N931        H936   1.046       .  S
N934        H937   1.047       .  S
N934        H938   1.044       .  S
C939        C940   1.423       .  A
C939        C944   1.397       .  A
C939        H946   1.082       .  S
C940        C941   1.420       .  A
C941        C942   1.412       .  A
C941        N948   1.430   1_545  S
C942        C943   1.407       .  A
C942        H947   1.084       .  S
C943        C944   1.407       .  A
C944        N945   1.433       .  S
N945        H949   1.043       .  S
N945        H950   1.046       .  S
N948        H951   1.046   1_565  S
N948        H952   1.045       .  S
C953        C954   1.431       .  A
C953        C958   1.402       .  A
C953        H960   1.070       .  S
C954        C955   1.439       .  A
C955        C956   1.418       .  A
C955        N962   1.439       .  S
C956        C957   1.406       .  A
C956        H961   1.084       .  S
C957        C958   1.400       .  A
C958        N959   1.440       .  S
N959        H963   1.045       .  S
N959        H964   1.046       .  S
N962        H965   1.036       .  S
N962        H966   1.046       .  S
C967        C968   1.415       .  A
C967        C972   1.411       .  A
C967        H974   1.079       .  S
C968        C969   1.430       .  A
C969        C970   1.408       .  A
C969        N976   1.433       .  S
C970        C971   1.398       .  A
C970        H975   1.084       .  S
C971        C972   1.411       .  A
C972        N973   1.438       .  S
N973        H977   1.046       .  S
N973        H978   1.045       .  S
N976        H979   1.046       .  S
N976        H980   1.045       .  S
C981        C982   1.415       .  A
C981        C986   1.419       .  A
C981        H988   1.080       .  S
C982        C983   1.420       .  A
C983        C984   1.402       .  A
C983        N990   1.436       .  S
C984        C985   1.418       .  A
C984        H989   1.075       .  S
C985        C986   1.427       .  A
C986        N987   1.429       .  S
N987        H991   1.046   1_556  S
N987        H992   1.045       .  S
N990        H993   1.046       .  S
N990        H994   1.045       .  S
C995        C996   1.416       .  A
C995       C1000   1.412       .  A
C995       H1002   1.078       .  S
C996        C997   1.421       .  A
C997        C998   1.407       .  A
C997       N1004   1.432       .  S
C998        C999   1.417       .  A
C998       H1003   1.073       .  S
C999       C1000   1.427       .  A
C1000      N1001   1.433       .  S
N1001      H1005   1.046       .  S
N1001      H1006   1.044   1_455  S
N1004      H1007   1.045       .  S
N1004      H1008   1.046       .  S
C1009      C1010   1.415       .  A
C1009      C1014   1.382       .  A
C1009      H1016   1.077       .  S
C1010      C1011   1.422       .  A
C1011      C1012   1.416       .  A
C1011      N1018   1.432       .  S
C1012      C1013   1.407       .  A
C1012      H1017   1.083       .  S
C1013      C1014   1.411       .  A
C1014      N1015   1.436       .  S
N1015      H1019   1.046       .  S
N1015      H1020   1.044       .  S
N1018      H1021   1.046       .  S
N1018      H1022   1.045       .  S
C1023      C1024   1.412       .  A
C1023      C1028   1.403       .  A
C1023      H1030   1.082       .  S
C1024      C1025   1.429       .  A
C1025      C1026   1.401       .  A
C1025      N1032   1.430       .  S
C1026      C1027   1.409       .  A
C1026      H1031   1.084       .  S
C1027      C1028   1.434       .  A
C1028      N1029   1.433       .  S
N1029      H1033   1.033       .  S
N1029      H1034   1.050       .  S
N1032      H1035   1.045       .  S
N1032      H1036   1.046       .  S
C1037      C1038   1.411       .  A
C1037      C1042   1.416       .  A
C1037      H1044   1.083       .  S
C1038      C1039   1.409       .  A
C1039      C1040   1.398       .  A
C1039      N1046   1.433       .  S
C1040      C1041   1.431       .  A
C1040      H1045   1.077       .  S
C1041      C1042   1.423       .  A
C1042      N1043   1.432       .  S
N1043      H1047   1.044       .  S
N1043      H1048   1.045       .  S
N1046      H1049   1.045       .  S
N1046      H1050   1.046       .  S
C1051      C1052   1.404       .  A
C1051      C1056   1.400       .  A
C1051      H1058   1.084       .  S
C1052      C1053   1.412       .  A
C1053      C1054   1.404       .  A
C1053      N1060   1.437       .  S
C1054      C1055   1.403       .  A
C1054      H1059   1.084       .  S
C1055      C1056   1.408       .  A
C1056      N1057   1.438       .  S
N1057      H1061   1.046       .  S
N1057      H1062   1.045       .  S
N1060      H1063   1.046       .  S
N1060      H1064   1.045       .  S
C1065      C1066   1.401       .  A
C1065      C1070   1.407       .  A
C1065      H1072   1.084       .  S
C1066      C1067   1.411       .  A
C1067      C1068   1.396       .  A
C1067      N1074   1.432       .  S
C1068      C1069   1.417       .  A
C1068      H1073   1.080       .  S
C1069      C1070   1.425       .  A
C1070      N1071   1.430       .  S
N1071      H1075   1.042       .  S
N1071      H1076   1.050       .  S
N1074      H1077   1.045       .  S
N1074      H1078   1.043       .  S
C1079      C1080   1.404       .  A
C1079      C1084   1.397       .  A
C1079      H1086   1.084       .  S
C1080      C1081   1.411       .  A
C1081      C1082   1.405       .  A
C1081      N1088   1.431       .  S
C1082      C1083   1.404       .  A
C1082      H1087   1.084       .  S
C1083      C1084   1.412       .  A
C1084      N1085   1.433       .  S
N1085      H1089   1.046       .  S
N1085      H1090   1.045       .  S
N1088      H1091   1.046       .  S
N1088      H1092   1.045       .  S
C1093      C1094   1.404       .  A
C1093      C1098   1.397       .  A
C1093      H1100   1.084       .  S
C1094      C1095   1.409       .  A
C1095      C1096   1.405       .  A
C1095      N1102   1.437       .  S
C1096      C1097   1.405       .  A
C1096      H1101   1.083       .  S
C1097      C1098   1.407       .  A
C1098      N1099   1.433       .  S
N1099      H1103   1.045       .  S
N1099      H1104   1.046       .  S
N1102      H1105   1.045       .  S
N1102      H1106   1.046       .  S
C1107      C1108   1.427       .  A
C1107      C1112   1.390       .  A
C1107      H1114   1.083       .  S
C1108      C1109   1.420       .  A
C1109      C1110   1.418       .  A
C1109      N1116   1.430       .  S
C1110      C1111   1.414       .  A
C1110      H1115   1.084       .  S
C1111      C1112   1.399       .  A
C1112      N1113   1.433       .  S
N1113      H1117   1.046       .  S
N1113      H1118   1.046       .  S
N1116      H1119   1.046       .  S
N1116      H1120   1.045       .  S
C1121      C1122   1.399       .  A
C1121      C1126   1.393       .  A
C1121      H1128   1.085       .  S
C1122      C1123   1.424       .  A
C1123      C1124   1.426       .  A
C1123      N1130   1.430       .  S
C1124      C1125   1.420       .  A
C1124      H1129   1.083   1_455  S
C1125      C1126   1.444       .  A
C1126      N1127   1.433       .  S
N1127      H1131   1.046       .  S
N1127      H1132   1.045       .  S
N1130      H1133   1.046       .  S
N1130      H1134   1.045   1_455  S
C1135      C1136   1.412       .  A
C1135      C1140   1.407       .  A
C1135      H1142   1.078       .  S
C1136      C1137   1.439       .  A
C1137      C1138   1.397       .  A
C1137      N1144   1.436   1_455  S
C1138      C1139   1.389       .  A
C1138      H1143   1.084       .  S
C1139      C1140   1.415       .  A
C1140      N1141   1.433       .  S
N1141      H1145   1.043       .  S
N1141      H1146   1.047       .  S
N1144      H1147   1.045       .  S
N1144      H1148   1.046   1_655  S
C1149      C1150   1.414       .  A
C1149      C1154   1.408       .  A
C1149      H1156   1.078       .  S
C1150      C1151   1.433       .  A
C1151      C1152   1.398       .  A
C1151      N1158   1.431       .  S
C1152      C1153   1.391       .  A
C1152      H1157   1.084       .  S
C1153      C1154   1.419       .  A
C1154      N1155   1.432   1_545  S
N1155      H1159   1.045       .  S
N1155      H1160   1.044       .  S
N1158      H1161   1.045       .  S
N1158      H1162   1.046       .  S
C1163      C1164   1.406       .  A
C1163      C1168   1.412       .  A
C1163      H1170   1.084       .  S
C1164      C1165   1.406       .  A
C1165      C1166   1.394       .  A
C1165      N1172   1.433       .  S
C1166      C1167   1.420       .  A
C1166      H1171   1.084       .  S
C1167      C1168   1.425       .  A
C1168      N1169   1.430       .  S
N1169      H1173   1.045       .  S
N1169      H1174   1.046       .  S
N1172      H1175   1.046       .  S
N1172      H1176   1.043       .  S
C1177      C1178   1.414       .  A
C1177      C1182   1.402       .  A
C1177      H1184   1.064       .  S
C1178      C1179   1.434       .  A
C1179      C1180   1.423       .  A
C1179      N1186   1.432   1_545  S
C1180      C1181   1.409       .  A
C1180      H1185   1.082       .  S
C1181      C1182   1.428       .  A
C1182      N1183   1.435       .  S
N1183      H1187   1.046       .  S
N1183      H1188   1.046       .  S
N1186      H1189   1.040       .  S
N1186      H1190   1.047       .  S
C1191      C1192   1.412       .  A
C1191      C1196   1.403       .  A
C1191      H1198   1.080       .  S
C1192      C1193   1.440       .  A
C1193      C1194   1.404       .  A
C1193      N1200   1.426       .  S
C1194      C1195   1.407       .  A
C1194      H1199   1.084       .  S
C1195      C1196   1.440       .  A
C1196      N1197   1.433       .  S
N1197      H1201   1.037       .  S
N1197      H1202   1.043       .  S
N1200      H1203   1.038       .  S
N1200      H1204   1.043       .  S
C1205      C1206   1.413       .  A
C1205      C1210   1.403       .  A
C1205      H1212   1.080       .  S
C1206      C1207   1.445       .  A
C1207      C1208   1.401       .  A
C1207      N1214   1.442       .  S
C1208      C1209   1.394       .  A
C1208      H1213   1.085       .  S
C1209      C1210   1.408       .  A
C1210      N1211   1.432       .  S
N1211      H1215   1.045       .  S
N1211      H1216   1.046       .  S
N1214      H1217   1.031       .  S
N1214      H1218   1.049       .  S
C1219      C1220   1.423       .  A
C1219      C1224   1.402       .  A
C1219      H1226   1.081       .  S
C1220      C1221   1.421       .  A
C1221      C1222   1.414       .  A
C1221      N1228   1.427       .  S
C1222      C1223   1.421       .  A
C1222      H1227   1.069       .  S
C1223      C1224   1.423       .  A
C1224      N1225   1.432       .  S
N1225      H1229   1.046       .  S
N1225      H1230   1.046       .  S
N1228      H1231   1.046       .  S
N1228      H1232   1.046       .  S
C1233      C1234   1.388       .  A
C1233      C1238   1.398       .  A
C1233      H1240   1.084       .  S
C1234      C1235   1.416       .  A
C1235      C1236   1.420       .  A
C1235      N1242   1.437       .  S
C1236      C1237   1.417       .  A
C1236      H1241   1.083       .  S
C1237      C1238   1.449       .  A
C1238      N1239   1.434       .  S
N1239      H1243   1.046       .  S
N1239      H1244   1.047       .  S
N1242      H1245   1.045       .  S
N1242      H1246   1.047       .  S
C1247      C1248   1.402       .  A
C1247      C1252   1.403       .  A
C1247      H1254   1.084       .  S
C1248      C1249   1.407       .  A
C1249      C1250   1.395       .  A
C1249      N1256   1.433       .  S
C1250      C1251   1.399       .  A
C1250      H1255   1.084       .  S
C1251      C1252   1.408       .  A
C1252      N1253   1.432       .  S
N1253      H1257   1.045       .  S
N1253      H1258   1.046       .  S
N1256      H1259   1.046       .  S
N1256      H1260   1.046       .  S
C1261      C1262   1.403       .  A
C1261      C1266   1.406       .  A
C1261      H1268   1.085       .  S
C1262      C1263   1.397       .  A
C1263      C1264   1.403       .  A
C1263      N1270   1.432       .  S
C1264      C1265   1.434       .  A
C1264      H1269   1.082       .  S
C1265      C1266   1.439       .  A
C1266      N1267   1.434       .  S
N1267      H1271   1.044       .  S
N1267      H1272   1.037       .  S
N1270      H1273   1.046       .  S
N1270      H1274   1.045       .  S
C1275      C1276   1.405       .  A
C1275      C1280   1.404       .  A
C1275      H1282   1.084       .  S
C1276      C1277   1.414       .  A
C1277      C1278   1.395       .  A
C1277      N1284   1.433       .  S
C1278      C1279   1.405       .  A
C1278      H1283   1.084       .  S
C1279      C1280   1.409       .  A
C1280      N1281   1.432       .  S
N1281      H1285   1.046       .  S
N1281      H1286   1.046       .  S
N1284      H1287   1.046       .  S
N1284      H1288   1.043       .  S
C1289      C1290   1.405       .  A
C1289      C1294   1.402       .  A
C1289      H1296   1.084       .  S
C1290      C1291   1.415       .  A
C1291      C1292   1.402       .  A
C1291      N1298   1.438       .  S
C1292      C1293   1.400       .  A
C1292      H1297   1.084       .  S
C1293      C1294   1.414       .  A
C1294      N1295   1.433       .  S
N1295      H1299   1.045       .  S
N1295      H1300   1.046       .  S
N1298      H1301   1.045       .  S
N1298      H1302   1.046       .  S
C1303      C1304   1.418       .  A
C1303      C1308   1.409       .  A
C1303      H1310   1.077       .  S
C1304      C1305   1.440       .  A
C1305      C1306   1.407       .  A
C1305      N1312   1.439       .  S
C1306      C1307   1.401       .  A
C1306      H1311   1.084       .  S
C1307      C1308   1.410       .  A
C1308      N1309   1.438       .  S
N1309      H1313   1.046       .  S
N1309      H1314   1.045       .  S
N1312      H1315   1.037       .  S
N1312      H1316   1.048       .  S
C1317      C1318   1.402       .  A
C1317      C1322   1.400       .  A
C1317      H1324   1.068       .  S
C1318      C1319   1.435       .  A
C1319      C1320   1.422       .  A
C1319      N1326   1.432       .  S
C1320      C1321   1.418       .  A
C1320      H1325   1.083   1_655  S
C1321      C1322   1.434       .  A
C1322      N1323   1.433       .  S
N1323      H1327   1.045       .  S
N1323      H1328   1.047       .  S
N1326      H1329   1.046       .  S
N1326      H1330   1.046       .  S
C1331      C1332   1.430       .  A
C1331      C1336   1.414       .  A
C1331      H1338   1.076   1_556  S
C1332      C1333   1.434       .  A
C1333      C1334   1.398       .  A
C1333      N1340   1.436       .  S
C1334      C1335   1.399       .  A
C1334      H1339   1.085       .  S
C1335      C1336   1.411       .  A
C1336      N1337   1.439   1_556  S
N1337      H1341   1.045       .  S
N1337      H1342   1.043       .  S
N1340      H1343   1.046       .  S
N1340      H1344   1.045       .  S
C1345      C1346   1.422       .  A
C1345      C1350   1.414   1_655  A
C1345      H1352   1.084       .  S
C1346      C1347   1.422       .  A
C1347      C1348   1.399   1_655  A
C1347      N1354   1.423       .  S
C1348      C1349   1.392       .  A
C1348      H1353   1.085       .  S
C1349      C1350   1.418       .  A
C1350      N1351   1.438       .  S
N1351      H1355   1.046       .  S
N1351      H1356   1.043       .  S
N1354      H1357   1.041       .  S
N1354      H1358   1.046   1_655  S
C1359      C1360   1.420       .  A
C1359      C1364   1.389       .  A
C1359      H1366   1.075       .  S
C1360      C1361   1.426       .  A
C1361      C1362   1.417       .  A
C1361      N1368   1.433       .  S
C1362      C1363   1.408       .  A
C1362      H1367   1.083       .  S
C1363      C1364   1.412       .  A
C1364      N1365   1.435       .  S
N1365      H1369   1.046       .  S
N1365      H1370   1.045       .  S
N1368      H1371   1.046       .  S
N1368      H1372   1.045       .  S
C1373      C1374   1.414       .  A
C1373      C1378   1.405       .  A
C1373      H1380   1.076       .  S
C1374      C1375   1.430       .  A
C1375      C1376   1.406   1_655  A
C1375      N1382   1.433   1_655  S
C1376      C1377   1.417   1_455  A
C1376      H1381   1.072       .  S
C1377      C1378   1.435       .  A
C1378      N1379   1.431       .  S
N1379      H1383   1.044       .  S
N1379      H1384   1.039       .  S
N1382      H1385   1.043   1_455  S
N1382      H1386   1.040       .  S
C1387      C1388   1.423       .  A
C1387      C1392   1.409       .  A
C1387      H1394   1.083       .  S
C1388      C1389   1.432       .  A
C1389      C1390   1.409       .  A
C1389      N1396   1.429       .  S
C1390      C1391   1.409       .  A
C1390      H1395   1.081       .  S
C1391      C1392   1.418       .  A
C1392      N1393   1.434   1_545  S
N1393      H1397   1.045   1_565  S
N1393      H1398   1.046       .  S
N1396      H1399   1.043       .  S
N1396      H1400   1.049       .  S
C1401      C1402   1.420       .  A
C1401      C1406   1.400       .  A
C1401      H1408   1.084       .  S
C1402      C1403   1.436       .  A
C1403      C1404   1.419       .  A
C1403      N1410   1.429       .  S
C1404      C1405   1.402       .  A
C1404      H1409   1.084       .  S
C1405      C1406   1.409       .  A
C1406      N1407   1.439       .  S
N1407      H1411   1.046       .  S
N1407      H1412   1.045       .  S
N1410      H1413   1.045       .  S
N1410      H1414   1.046       .  S
C1415      C1416   1.415       .  A
C1415      C1420   1.401       .  A
C1415      H1422   1.084       .  S
C1416      C1417   1.441       .  A
C1417      C1418   1.412       .  A
C1417      N1424   1.431       .  S
C1418      C1419   1.409       .  A
C1418      H1423   1.080       .  S
C1419      C1420   1.426       .  A
C1420      N1421   1.434       .  S
N1421      H1425   1.045       .  S
N1421      H1426   1.046       .  S
N1424      H1427   1.044       .  S
N1424      H1428   1.038       .  S
C1429      C1430   1.407       .  A
C1429      C1434   1.417       .  A
C1429      H1436   1.084       .  S
C1430      C1431   1.401       .  A
C1431      C1432   1.402       .  A
C1431      N1438   1.439       .  S
C1432      C1433   1.429       .  A
C1432      H1437   1.081       .  S
C1433      C1434   1.430       .  A
C1434      N1435   1.427       .  S
N1435      H1439   1.046       .  S
N1435      H1440   1.046       .  S
N1438      H1441   1.046       .  S
N1438      H1442   1.045       .  S
C1443      C1444   1.389       .  A
C1443      C1448   1.400       .  A
C1443      H1450   1.085       .  S
C1444      C1445   1.413       .  A
C1445      C1446   1.415       .  A
C1445      N1452   1.437   1_565  S
C1446      C1447   1.419       .  A
C1446      H1451   1.083       .  S
C1447      C1448   1.449       .  A
C1448      N1449   1.432       .  S
N1449      H1453   1.046       .  S
N1449      H1454   1.046       .  S
N1452      H1455   1.047       .  S
N1452      H1456   1.044   1_545  S
C1457      C1458   1.403       .  A
C1457      C1462   1.402       .  A
C1457      H1464   1.084       .  S
C1458      C1459   1.410       .  A
C1459      C1460   1.398       .  A
C1459      N1466   1.433       .  S
C1460      C1461   1.399       .  A
C1460      H1465   1.084       .  S
C1461      C1462   1.406       .  A
C1462      N1463   1.433       .  S
N1463      H1467   1.046       .  S
N1463      H1468   1.045       .  S
N1466      H1469   1.046       .  S
N1466      H1470   1.046       .  S
C1471      C1472   1.398       .  A
C1471      C1476   1.405       .  A
C1471      H1478   1.084       .  S
C1472      C1473   1.406       .  A
C1473      C1474   1.407       .  A
C1473      N1480   1.433       .  S
C1474      C1475   1.422       .  A
C1474      H1479   1.077       .  S
C1475      C1476   1.443       .  A
C1476      N1477   1.439       .  S
N1477      H1481   1.046       .  S
N1477      H1482   1.038       .  S
N1480      H1483   1.046       .  S
N1480      H1484   1.046       .  S
C1485      C1486   1.402       .  A
C1485      C1490   1.397       .  A
C1485      H1492   1.084       .  S
C1486      C1487   1.407       .  A
C1487      C1488   1.402       .  A
C1487      N1494   1.438       .  S
C1488      C1489   1.406       .  A
C1488      H1493   1.083       .  S
C1489      C1490   1.417       .  A
C1490      N1491   1.433       .  S
N1491      H1495   1.042       .  S
N1491      H1496   1.046       .  S
N1494      H1497   1.047       .  S
N1494      H1498   1.044       .  S
C1499      C1500   1.407       .  A
C1499      C1504   1.406       .  A
C1499      H1506   1.084       .  S
C1500      C1501   1.418       .  A
C1501      C1502   1.389       .  A
C1501      N1508   1.432       .  S
C1502      C1503   1.397       .  A
C1502      H1507   1.084       .  S
C1503      C1504   1.412       .  A
C1504      N1505   1.438       .  S
N1505      H1509   1.044       .  S
N1505      H1510   1.047       .  S
N1508      H1511   1.044       .  S
N1508      H1512   1.045       .  S
C1513      C1514   1.412       .  A
C1513      C1518   1.405   1_655  A
C1513      H1520   1.078       .  S
C1514      C1515   1.436       .  A
C1515      C1516   1.398       .  A
C1515      N1522   1.434       .  S
C1516      C1517   1.392       .  A
C1516      H1521   1.084       .  S
C1517      C1518   1.409   1_655  A
C1518      N1519   1.432       .  S
N1519      H1523   1.046       .  S
N1519      H1524   1.045       .  S
N1522      H1525   1.045       .  S
N1522      H1526   1.046       .  S
C1527      C1528   1.414       .  A
C1527      C1532   1.414       .  A
C1527      H1534   1.083   1_545  S
C1528      C1529   1.439       .  A
C1529      C1530   1.397       .  A
C1529      N1536   1.433       .  S
C1530      C1531   1.404   1_554  A
C1530      H1535   1.085       .  S
C1531      C1532   1.427   1_556  A
C1532      N1533   1.430   1_554  S
N1533      H1537   1.047   1_545  S
N1533      H1538   1.044   1_545  S
N1536      H1539   1.045       .  S
N1536      H1540   1.047       .  S
C1541      C1542   1.392   1_565  A
C1541      C1546   1.397   1_565  A
C1541      H1548   1.085       .  S
C1542      C1543   1.410       .  A
C1543      C1544   1.405       .  A
C1543      N1550   1.433       .  S
C1544      C1545   1.421       .  A
C1544      H1549   1.076       .  S
C1545      C1546   1.444       .  A
C1546      N1547   1.436   1_545  S
N1547      H1551   1.042   1_565  S
N1547      H1552   1.042       .  S
N1550      H1553   1.046       .  S
N1550      H1554   1.045   1_545  S
C1555      C1556   1.415       .  A
C1555      C1560   1.418       .  A
C1555      H1562   1.073   1_655  S
C1556      C1557   1.417       .  A
C1557      C1558   1.402       .  A
C1557      N1564   1.432       .  S
C1558      C1559   1.422       .  A
C1558      H1563   1.076       .  S
C1559      C1560   1.439       .  A
C1560      N1561   1.438   1_565  S
N1561      H1565   1.041   1_655  S
N1561      H1566   1.041       .  S
N1564      H1567   1.046       .  S
N1564      H1568   1.046       .  S
C1569      C1570   1.399       .  A
C1569      C1574   1.410   1_556  A
C1569      H1576   1.083       .  S
C1570      C1571   1.405       .  A
C1571      C1572   1.411   1_556  A
C1571      N1578   1.439       .  S
C1572      C1573   1.424       .  A
C1572      H1577   1.071       .  S
C1573      C1574   1.429       .  A
C1574      N1575   1.431       .  S
N1575      H1579   1.046       .  S
N1575      H1580   1.045   1_554  S
N1578      H1581   1.045   1_556  S
N1578      H1582   1.046       .  S
C1583      C1584   1.407       .  A
C1583      C1588   1.405       .  A
C1583      H1590   1.075       .  S
C1584      C1585   1.423       .  A
C1585      C1586   1.416       .  A
C1585      N1592   1.433   1_554  S
C1586      C1587   1.421       .  A
C1586      H1591   1.081       .  S
C1587      C1588   1.436       .  A
C1588      N1589   1.427       .  S
N1589      H1593   1.045       .  S
N1589      H1594   1.047       .  S
N1592      H1595   1.046       .  S
N1592      H1596   1.044       .  S
C1597      C1598   1.420       .  A
C1597      C1602   1.390       .  A
C1597      H1604   1.084       .  S
C1598      C1599   1.448       .  A
C1599      C1600   1.409       .  A
C1599      N1606   1.431       .  S
C1600      C1601   1.396       .  A
C1600      H1605   1.084       .  S
C1601      C1602   1.411       .  A
C1602      N1603   1.434       .  S
N1603      H1607   1.045       .  S
N1603      H1608   1.045       .  S
N1606      H1609   1.039       .  S
N1606      H1610   1.043       .  S
C1611      C1612   1.421   1_554  A
C1611      C1616   1.396       .  A
C1611      H1618   1.078       .  S
C1612      C1613   1.423       .  A
C1613      C1614   1.424       .  A
C1613      N1620   1.430       .  S
C1614      C1615   1.420   1_556  A
C1614      H1619   1.080       .  S
C1615      C1616   1.418       .  A
C1616      N1617   1.436       .  S
N1617      H1621   1.045       .  S
N1617      H1622   1.046       .  S
N1620      H1623   1.046       .  S
N1620      H1624   1.045       .  S
C1625      C1626   1.393       .  A
C1625      C1630   1.402       .  A
C1625      H1632   1.084       .  S
C1626      C1627   1.414       .  A
C1627      C1628   1.411       .  A
C1627      N1634   1.432       .  S
C1628      C1629   1.412       .  A
C1628      H1633   1.079       .  S
C1629      C1630   1.437       .  A
C1630      N1631   1.433       .  S
N1631      H1635   1.046       .  S
N1631      H1636   1.046       .  S
N1634      H1637   1.046       .  S
N1634      H1638   1.046       .  S
C1639      C1640   1.417       .  A
C1639      C1644   1.400       .  A
C1639      H1646   1.076       .  S
C1640      C1641   1.421       .  A
C1641      C1642   1.415       .  A
C1641      N1648   1.428       .  S
C1642      C1643   1.414       .  A
C1642      H1647   1.078       .  S
C1643      C1644   1.424       .  A
C1644      N1645   1.438       .  S
N1645      H1649   1.046       .  S
N1645      H1650   1.046       .  S
N1648      H1651   1.040       .  S
N1648      H1652   1.044       .  S
C1653      C1654   1.417       .  A
C1653      C1658   1.403       .  A
C1653      H1660   1.078       .  S
C1654      C1655   1.444       .  A
C1655      C1656   1.402       .  A
C1655      N1662   1.440       .  S
C1656      C1657   1.394       .  A
C1656      H1661   1.084       .  S
C1657      C1658   1.414       .  A
C1658      N1659   1.433       .  S
N1659      H1663   1.045       .  S
N1659      H1664   1.045       .  S
N1662      H1665   1.037       .  S
N1662      H1666   1.044       .  S
C1667      C1668   1.418       .  A
C1667      C1672   1.406       .  A
C1667      H1674   1.079       .  S
C1668      C1669   1.422       .  A
C1669      C1670   1.421       .  A
C1669      N1676   1.433       .  S
C1670      C1671   1.419       .  A
C1670      H1675   1.076       .  S
C1671      C1672   1.424       .  A
C1672      N1673   1.433       .  S
N1673      H1677   1.046       .  S
N1673      H1678   1.045       .  S
N1676      H1679   1.046       .  S
N1676      H1680   1.046       .  S
