geometry optimzed in LAMMPS
_audit_creation_date              2020-11-30 
_audit_creation_method            'lammps2cif' 
_symmetry_space_group_name_H-M    'P1' 
_symmetry_Int_Tables_number       1 
_symmetry_cell_setting            triclinic 
loop_ 
_symmetry_equiv_pos_as_xyz 
  x,y,z 
_cell_length_a                    30.53517844 
_cell_length_b                    32.09682224923041 
_cell_length_c                    29.96063206470834 
_cell_angle_alpha                 85.34682530744895 
_cell_angle_beta                  92.83466949436219 
_cell_angle_gamma                 121.93117991642742 
loop_ 
_atom_site_label 
_atom_site_type_symbol 
_atom_site_fract_x 
_atom_site_fract_y 
_atom_site_fract_z 
_atom_site_charge 
C1          C  0.41267327  0.31746411  0.98931928     0.01900
C2          C  0.06538962  0.39674773  0.32197083     0.01900
C3          C  0.11427867  0.03637025  0.99424008     0.01900
C4          C  0.05769884  0.11753080  0.35042906     0.01900
C5          C  0.40648064  0.04273551  0.33993051     0.01900
C6          C  0.35611236  0.40156267  0.33544776     0.01900
O7          O  0.25037312  0.37854363  0.20176833    -0.77400
C8          C  0.11007255  0.21263737  0.11640515     1.01900
O9          O  0.15793448  0.23685007  0.12347873    -0.66500
O10         O  0.24787138  0.31667836  0.13523850    -0.70100
Al11       Al  0.19126989  0.27154004  0.17438199     1.49000
C12         C  0.25440258  0.35141569  0.10771370     0.97200
O13         O  0.14660502  0.37535192  0.12244098    -0.76300
O14         O  0.08474462  0.31716517  0.20320142    -0.69900
Al15       Al  0.19462076  0.36980485  0.16268401     1.90100
O16         O  0.08336129  0.29919351  0.11480821    -0.69000
O17         O  0.08575951  0.23774463  0.22721285    -0.68800
O18         O  0.07928042  0.21753770  0.13864488    -0.74500
O19         O  0.14260594  0.21828084  0.21457204    -0.72700
O20         O  0.15832996  0.30411368  0.16932607    -1.08800
O21         O  0.22803575  0.30333736  0.22591987    -0.68000
C22         C  0.25495132  0.34910741  0.22933858     1.02700
C23         C  0.10664332  0.34408210  0.10222398     0.99100
Al24       Al  0.08928918  0.27082622  0.17086385     1.55600
O25         O  0.22886072  0.37150874  0.11080012    -0.72600
C26         C  0.10571301  0.21252020  0.23712507     1.03300
C27         C  0.11810282  0.35464286  0.22272005     0.98200
O28         O  0.16520447  0.37632887  0.21353523    -0.77900
O29         O  0.38579798  0.21820202  0.12332356    -0.77400
C30         C  0.21337031  0.08515266  0.22221425     1.01900
O31         O  0.24161196  0.13087771  0.21506422    -0.66500
O32         O  0.32543835  0.21649432  0.19688699    -0.70100
Al33       Al  0.27571381  0.16260847  0.16129250     1.49000
C34         C  0.36366939  0.22273536  0.22067755     0.97200
O35         O  0.38389431  0.11784593  0.20500769    -0.76300
O36         O  0.32307682  0.06024922  0.13052552    -0.69900
Al37       Al  0.37835173  0.16495544  0.16410414     1.90100
O38         O  0.30319764  0.05981735  0.21937779    -0.69000
O39         O  0.24138171  0.06415747  0.10992882    -0.68800
O40         O  0.21727495  0.05588064  0.19925582    -0.74500
O41         O  0.21861995  0.11600966  0.12480132    -0.72700
O42         O  0.30962195  0.13115378  0.16343321    -1.08800
O43         O  0.30584025  0.19734119  0.10742634    -0.68000
C44         C  0.35306576  0.22247435  0.09899164     1.02700
C45         C  0.35040217  0.08061495  0.22845580     0.99100
Al46       Al  0.27421623  0.06553005  0.16467623     1.55600
O47         O  0.38377491  0.19801590  0.21544183    -0.72600
C48         C  0.21429256  0.08261440  0.10167458     1.03300
C49         C  0.36106767  0.09197340  0.10692161     0.98200
O50         O  0.38254666  0.13694026  0.11275852    -0.77900
C51         C  0.32203792  0.38383784  0.04178716    -0.08900
C52         C  0.29182969  0.36871242  0.07245644    -0.10400
C53         C  0.32104408  0.38341527  0.29654095    -0.08900
C54         C  0.29143806  0.36814545  0.26537036    -0.10400
C55         C  0.36571395  0.06131386  0.26653362    -0.08900
C56         C  0.37959359  0.04779854  0.29988725    -0.10400
C57         C  0.38035996  0.07690760  0.07272353    -0.08900
C58         C  0.39504467  0.06390815  0.04306069    -0.10400
C59         C  0.38585867  0.48879613  0.35367720    -0.12000
C60         C  0.38837061  0.45760825  0.32781971    -0.27200
H61         H  0.36504371  0.97430753  0.05173673     0.17000
H62         H  0.41077566  0.47270054  0.29721233     0.17600
C63         C  0.07464930  0.15140265  0.05263965    -0.08900
C64         C  0.09014803  0.17895926  0.08219336    -0.10400
C65         C  0.07096736  0.14817120  0.30754563    -0.08900
C66         C  0.08605015  0.17659803  0.27470976    -0.10400
C67         C  0.00072948  0.07996092  0.35833941    -0.12000
C68         C  0.46348899  0.07269428  0.32871917    -0.27200
H69         H  0.98959060  0.06006374  0.05769385     0.17000
H70         H  0.47473597  0.09150052  0.29561384     0.17600
C71         C  0.17778105  0.06450224  0.06551602    -0.08900
C72         C  0.14862327  0.04946666  0.03398309    -0.10400
C73         C  0.14702282  0.05371569  0.28783939    -0.08900
C74         C  0.17606799  0.06666767  0.25694998    -0.10400
C75         C  0.08768999  0.09241757  0.35479500    -0.13400
C76         C  0.08296191  0.06073798  0.99188216    -0.27200
H77         H  0.11467898  0.10145241  0.04932763     0.17000
H78         H  0.05613037  0.05289813  0.29726321     0.17600
C79         C  0.10178301  0.37239031  0.25640213    -0.08900
C80         C  0.08621307  0.38465825  0.28565032    -0.10400
C81         C  0.07466276  0.37478381  0.03057780    -0.08900
C82         C  0.08767464  0.35998996  0.06386218    -0.10400
C83         C  0.09738499  0.45175888  0.99193524    -0.12000
C84         C  0.07849720  0.48115468  0.99396690    -0.27200
H85         H  0.13909322  0.46851339  0.32686053     0.17000
H86         H  0.03706469  0.96551587  0.99390593     0.17600
C87         C  0.38495325  0.25848139  0.25442243    -0.08900
C88         C  0.40125160  0.28662393  0.28425147    -0.10400
C89         C  0.38431255  0.28345896  0.02745062    -0.08900
C90         C  0.36931112  0.25616374  0.06056812    -0.10400
C91         C  0.00853690  0.37681872  0.97689076    -0.12000
C92         C  0.46930362  0.34345813  0.00308675    -0.27200
H93         H  0.99959253  0.38871384  0.27788220     0.17000
H94         H  0.47861558  0.33293030  0.03592468     0.17600
C95         C  0.39265475  0.35161641  0.31144313    -0.12000
C96         C  0.39068228  0.38014902  0.34120085    -0.27200
H97         H  0.37472803  0.34909042  0.27872045     0.17000
H98         H  0.41100829  0.38449444  0.03964572     0.17600
C99         C  0.41267313  0.31746406  0.32265267     0.01900
C100        C  0.06538941  0.39674759  0.65530407     0.01900
C101        C  0.11427858  0.03637026  0.32757327     0.01900
C102        C  0.05769890  0.11753088  0.68376228     0.01900
C103        C  0.40648067  0.04273549  0.67326378     0.01900
C104        C  0.35611215  0.40156256  0.66878098     0.01900
O105        O  0.25037313  0.37854360  0.53510167    -0.77400
C106        C  0.11007242  0.21263726  0.44973834     1.01900
O107        O  0.15793427  0.23684986  0.45681212    -0.66500
O108        O  0.24787123  0.31667831  0.46857173    -0.70100
Al109      Al  0.19126976  0.27154000  0.50771530     1.49000
C110        C  0.25440242  0.35141559  0.44104692     0.97200
O111        O  0.14660493  0.37535187  0.45577421    -0.76300
O112        O  0.08474463  0.31716515  0.53653470    -0.69900
Al113      Al  0.19462072  0.36980480  0.49601729     1.90100
O114        O  0.08336117  0.29919349  0.44814144    -0.69000
O115        O  0.08575938  0.23774452  0.56054595    -0.68800
O116        O  0.07928036  0.21753758  0.47197802    -0.74500
O117        O  0.14260580  0.21828086  0.54790529    -0.72700
O118        O  0.15832994  0.30411373  0.50265935    -1.08800
O119        O  0.22803574  0.30333735  0.55925318    -0.68000
C120        C  0.25495139  0.34910737  0.56267183     1.02700
C121        C  0.10664321  0.34408207  0.43555724     0.99100
Al122      Al  0.08928921  0.27082619  0.50419706     1.55600
O123        O  0.22886061  0.37150863  0.44413339    -0.72600
C124        C  0.10571295  0.21252025  0.57045833     1.03300
C125        C  0.11810292  0.35464281  0.55605334     0.98200
O126        O  0.16520459  0.37632879  0.54686849    -0.77900
O127        O  0.38579788  0.21820200  0.45665686    -0.77400
C128        C  0.21337031  0.08515259  0.55554769     1.01900
O129        O  0.24161184  0.13087762  0.54839757    -0.66500
O130        O  0.32543824  0.21649420  0.53022032    -0.70100
Al131      Al  0.27571371  0.16260837  0.49462587     1.49000
C132        C  0.36366925  0.22273522  0.55401100     0.97200
O133        O  0.38389427  0.11784578  0.53834091    -0.76300
O134        O  0.32307672  0.06024925  0.46385877    -0.69900
Al135      Al  0.37835155  0.16495539  0.49743744     1.90100
O136        O  0.30319760  0.05981724  0.55271108    -0.69000
O137        O  0.24138164  0.06415745  0.44326211    -0.68800
O138        O  0.21727480  0.05588060  0.53258908    -0.74500
O139        O  0.21861981  0.11600958  0.45813467    -0.72700
O140        O  0.30962182  0.13115373  0.49676639    -1.08800
O141        O  0.30584009  0.19734115  0.44075972    -0.68000
C142        C  0.35306561  0.22247438  0.43232507     1.02700
C143        C  0.35040208  0.08061496  0.56178917     0.99100
Al144      Al  0.27421619  0.06553002  0.49800953     1.55600
O145        O  0.38377481  0.19801587  0.54877510    -0.72600
C146        C  0.21429252  0.08261441  0.43500784     1.03300
C147        C  0.36106771  0.09197340  0.44025499     0.98200
O148        O  0.38254652  0.13694027  0.44609180    -0.77900
C149        C  0.32203779  0.38383782  0.37512047    -0.08900
C150        C  0.29182959  0.36871239  0.40578976    -0.10400
C151        C  0.32104394  0.38341525  0.62987417    -0.08900
C152        C  0.29143791  0.36814527  0.59870364    -0.10400
C153        C  0.36571369  0.06131350  0.59986676    -0.08900
C154        C  0.37959359  0.04779854  0.63322045    -0.10400
C155        C  0.38035995  0.07690755  0.40605682    -0.08900
C156        C  0.39504484  0.06390829  0.37639394    -0.10400
C157        C  0.38585859  0.48879601  0.68701062    -0.12000
C158        C  0.38837033  0.45760811  0.66115306    -0.27200
H159        H  0.36504407  0.97430733  0.38507082     0.17000
H160        H  0.41077570  0.47270050  0.63054579     0.17600
C161        C  0.07464929  0.15140255  0.38597298    -0.08900
C162        C  0.09014782  0.17895905  0.41552671    -0.10400
C163        C  0.07096759  0.14817125  0.64087887    -0.08900
C164        C  0.08604997  0.17659798  0.60804291    -0.10400
C165        C  0.00072955  0.07996098  0.69167258    -0.12000
C166        C  0.46348897  0.07269422  0.66205242    -0.27200
H167        H  0.98959054  0.06006369  0.39102716     0.17000
H168        H  0.47473591  0.09150046  0.62894707     0.17600
C169        C  0.17778096  0.06450219  0.39884929    -0.08900
C170        C  0.14862316  0.04946654  0.36731636    -0.10400
C171        C  0.14702274  0.05371559  0.62117277    -0.08900
C172        C  0.17606784  0.06666763  0.59028331    -0.10400
C173        C  0.08769006  0.09241767  0.68812831    -0.13400
C174        C  0.08296168  0.06073786  0.32521531    -0.27200
H175        H  0.11467884  0.10145214  0.38266093     0.17000
H176        H  0.05613011  0.05289796  0.63059667     0.17600
C177        C  0.10178308  0.37239024  0.58973543    -0.08900
C178        C  0.08621313  0.38465816  0.61898366    -0.10400
C179        C  0.07466276  0.37478378  0.36391117    -0.08900
C180        C  0.08767461  0.35998993  0.39719552    -0.10400
C181        C  0.09738537  0.45175910  0.32526855    -0.12000
C182        C  0.07849747  0.48115463  0.32730019    -0.27200
H183        H  0.13909247  0.46851304  0.66019364     0.17000
H184        H  0.03706477  0.96551590  0.32723913     0.17600
C185        C  0.38495340  0.25848139  0.58775599    -0.08900
C186        C  0.40125150  0.28662401  0.61758498    -0.10400
C187        C  0.38431258  0.28345893  0.36078415    -0.08900
C188        C  0.36931091  0.25616362  0.39390155    -0.10400
C189        C  0.00853702  0.37681866  0.31022424    -0.12000
C190        C  0.46930351  0.34345805  0.33642038    -0.27200
H191        H  0.99959257  0.38871385  0.61121516     0.17000
H192        H  0.47861547  0.33293019  0.36925835     0.17600
C193        C  0.39265473  0.35161626  0.64477678    -0.12000
C194        C  0.39068223  0.38014905  0.67453442    -0.27200
H195        H  0.37472854  0.34909058  0.61205448     0.17000
H196        H  0.41100862  0.38449391  0.37297971     0.17600
C197        C  0.41267323  0.31746404  0.65598620     0.01900
C198        C  0.06538937  0.39674755  0.98863733     0.01900
C199        C  0.11427849  0.03637023  0.66090658     0.01900
C200        C  0.05769881  0.11753076  0.01709582     0.01900
C201        C  0.40648057  0.04273557  0.00659706     0.01900
C202        C  0.35611227  0.40156273  0.00211424     0.01900
O203        O  0.25037296  0.37854356  0.86843514    -0.77400
C204        C  0.11007249  0.21263746  0.78307168     1.01900
O205        O  0.15793428  0.23685000  0.79014548    -0.66500
O206        O  0.24787132  0.31667846  0.80190530    -0.70100
Al207      Al  0.19126980  0.27153994  0.84104866     1.49000
C208        C  0.25440243  0.35141568  0.77438032     0.97200
O209        O  0.14660509  0.37535203  0.78910752    -0.76300
O210        O  0.08474451  0.31716515  0.86986815    -0.69900
Al211      Al  0.19462078  0.36980488  0.82935068     1.90100
O212        O  0.08336114  0.29919343  0.78147470    -0.69000
O213        O  0.08575922  0.23774455  0.89387934    -0.68800
O214        O  0.07928038  0.21753765  0.80531149    -0.74500
O215        O  0.14260578  0.21828092  0.88123875    -0.72700
O216        O  0.15833001  0.30411367  0.83599263    -1.08800
O217        O  0.22803558  0.30333733  0.89258659    -0.68000
C218        C  0.25495122  0.34910738  0.89600535     1.02700
C219        C  0.10664327  0.34408210  0.76889058     0.99100
Al220      Al  0.08928917  0.27082623  0.83753045     1.55600
O221        O  0.22886066  0.37150880  0.77746665    -0.72600
C222        C  0.10571276  0.21252017  0.90379173     1.03300
C223        C  0.11810280  0.35464282  0.88938673     0.98200
O224        O  0.16520443  0.37632892  0.88020182    -0.77900
O225        O  0.38579797  0.21820185  0.78999042    -0.77400
C226        C  0.21337033  0.08515245  0.88888097     1.01900
O227        O  0.24161187  0.13087745  0.88173092    -0.66500
O228        O  0.32543837  0.21649419  0.86355352    -0.70100
Al229      Al  0.27571370  0.16260820  0.82795917     1.49000
C230        C  0.36366932  0.22273522  0.88734429     0.97200
O231        O  0.38389434  0.11784568  0.87167449    -0.76300
O232        O  0.32307666  0.06024914  0.79719202    -0.69900
Al233      Al  0.37835165  0.16495527  0.83077085     1.90100
O234        O  0.30319759  0.05981707  0.88604427    -0.69000
O235        O  0.24138164  0.06415727  0.77659536    -0.68800
O236        O  0.21727484  0.05588042  0.86592241    -0.74500
O237        O  0.21861988  0.11600939  0.79146791    -0.72700
O238        O  0.30962185  0.13115353  0.83009977    -1.08800
O239        O  0.30584026  0.19734097  0.77409296    -0.68000
C240        C  0.35306576  0.22247421  0.76565843     1.02700
C241        C  0.35040207  0.08061465  0.89512241     0.99100
Al242      Al  0.27421620  0.06552982  0.83134281     1.55600
O243        O  0.38377486  0.19801580  0.88210858    -0.72600
C244        C  0.21429252  0.08261420  0.76834108     1.03300
C245        C  0.36106787  0.09197331  0.77358839     0.98200
O246        O  0.38254671  0.13694020  0.77942517    -0.77900
C247        C  0.32203770  0.38383772  0.70845378    -0.08900
C248        C  0.29182952  0.36871247  0.73912306    -0.10400
C249        C  0.32104399  0.38341548  0.96320770    -0.08900
C250        C  0.29143809  0.36814551  0.93203708    -0.10400
C251        C  0.36571374  0.06131351  0.93320008    -0.08900
C252        C  0.37959359  0.04779843  0.96655365    -0.10400
C253        C  0.38036005  0.07690758  0.73939005    -0.08900
C254        C  0.39504485  0.06390816  0.70972724    -0.10400
C255        C  0.38585878  0.48879621  0.02034400    -0.12000
C256        C  0.38837065  0.45760837  0.99448637    -0.27200
H257        H  0.36504418  0.97430724  0.71840417     0.17000
H258        H  0.41077613  0.47270092  0.96387909     0.17600
C259        C  0.07464936  0.15140274  0.71930622    -0.08900
C260        C  0.09014820  0.17895925  0.74886002    -0.10400
C261        C  0.07096719  0.14817097  0.97421240    -0.08900
C262        C  0.08604993  0.17659789  0.94137656    -0.10400
C263        C  0.00072950  0.07996094  0.02500612    -0.12000
C264        C  0.46348886  0.07269425  0.99538578    -0.27200
H265        H  0.98959111  0.06006436  0.72436040     0.17000
H266        H  0.47473575  0.09150060  0.96228054     0.17600
C267        C  0.17778093  0.06450199  0.73218254    -0.08900
C268        C  0.14862317  0.04946650  0.70064957    -0.10400
C269        C  0.14702283  0.05371552  0.95450607    -0.08900
C270        C  0.17606801  0.06666769  0.92361662    -0.10400
C271        C  0.08769014  0.09241772  0.02146182    -0.13400
C272        C  0.08296161  0.06073789  0.65854858    -0.27200
H273        H  0.11467909  0.10145245  0.71599407     0.17000
H274        H  0.05613087  0.05289819  0.96393021     0.17600
C275        C  0.10178311  0.37239028  0.92306870    -0.08900
C276        C  0.08621327  0.38465821  0.95231697    -0.10400
C277        C  0.07466269  0.37478373  0.69724451    -0.08900
C278        C  0.08767468  0.35998991  0.73052882    -0.10400
C279        C  0.09738512  0.45175900  0.65860183    -0.12000
C280        C  0.07849727  0.48115470  0.66063349    -0.27200
H281        H  0.13909211  0.46851267  0.99352759     0.17000
H282        H  0.03706470  0.96551602  0.66057216     0.17600
C283        C  0.38495345  0.25848145  0.92108913    -0.08900
C284        C  0.40125142  0.28662399  0.95091813    -0.10400
C285        C  0.38431261  0.28345886  0.69411752    -0.08900
C286        C  0.36931081  0.25616354  0.72723491    -0.10400
C287        C  0.00853689  0.37681867  0.64355724    -0.12000
C288        C  0.46930361  0.34345813  0.66975346    -0.27200
H289        H  0.99959215  0.38871361  0.94454831     0.17000
H290        H  0.47861561  0.33293076  0.70259165     0.17600
C291        C  0.39265481  0.35161633  0.97810970    -0.12000
C292        C  0.39068216  0.38014905  0.00786738    -0.27200
H293        H  0.37472839  0.34909044  0.94538740     0.17000
H294        H  0.41100808  0.38449401  0.70631315     0.17600
C295        C  0.41267339  0.81746414  0.98931939     0.01900
C296        C  0.06538955  0.89674766  0.32197080     0.01900
C297        C  0.11427865  0.53637037  0.99424012     0.01900
C298        C  0.05769885  0.61753079  0.35042913     0.01900
C299        C  0.40648068  0.54273559  0.33993045     0.01900
C300        C  0.35611232  0.90156267  0.33544776     0.01900
O301        O  0.25037316  0.87854361  0.20176848    -0.77400
C302        C  0.11007251  0.71263740  0.11640505     1.01900
O303        O  0.15793432  0.73684991  0.12347878    -0.66500
O304        O  0.24787139  0.81667840  0.13523850    -0.70100
Al305      Al  0.19126995  0.77154004  0.17438202     1.49000
C306        C  0.25440248  0.85141568  0.10771369     0.97200
O307        O  0.14660504  0.87535197  0.12244105    -0.76300
O308        O  0.08474471  0.81716516  0.20320140    -0.69900
Al309      Al  0.19462085  0.86980492  0.16268409     1.90100
O310        O  0.08336132  0.79919353  0.11480823    -0.69000
O311        O  0.08575940  0.73774467  0.22721279    -0.68800
O312        O  0.07928049  0.71753765  0.13864491    -0.74500
O313        O  0.14260588  0.71828088  0.21457207    -0.72700
O314        O  0.15833019  0.80411384  0.16932612    -1.08800
O315        O  0.22803572  0.80333732  0.22591986    -0.68000
C316        C  0.25495132  0.84910734  0.22933864     1.02700
C317        C  0.10664348  0.84408210  0.10222394     0.99100
Al318      Al  0.08928934  0.77082630  0.17086384     1.55600
O319        O  0.22886068  0.87150879  0.11080018    -0.72600
C320        C  0.10571297  0.71252029  0.23712510     1.03300
C321        C  0.11810287  0.85464283  0.22272004     0.98200
O322        O  0.16520448  0.87632881  0.21353529    -0.77900
O323        O  0.38579801  0.71820197  0.12332355    -0.77400
C324        C  0.21337035  0.58515270  0.22221442     1.01900
O325        O  0.24161190  0.63087772  0.21506427    -0.66500
O326        O  0.32543845  0.71649432  0.19688694    -0.70100
Al327      Al  0.27571384  0.66260853  0.16129256     1.49000
C328        C  0.36366941  0.72273537  0.22067757     0.97200
O329        O  0.38389433  0.61784597  0.20500775    -0.76300
O330        O  0.32307677  0.56024933  0.13052553    -0.69900
Al331      Al  0.37835184  0.66495555  0.16410415     1.90100
O332        O  0.30319771  0.55981747  0.21937772    -0.69000
O333        O  0.24138169  0.56415756  0.10992892    -0.68800
O334        O  0.21727498  0.55588069  0.19925593    -0.74500
O335        O  0.21861983  0.61600963  0.12480145    -0.72700
O336        O  0.30962205  0.63115392  0.16343308    -1.08800
O337        O  0.30584019  0.69734111  0.10742641    -0.68000
C338        C  0.35306572  0.72247436  0.09899173     1.02700
C339        C  0.35040219  0.58061511  0.22845588     0.99100
Al340      Al  0.27421625  0.56553011  0.16467628     1.55600
O341        O  0.38377499  0.69801603  0.21544170    -0.72600
C342        C  0.21429253  0.58261445  0.10167463     1.03300
C343        C  0.36106778  0.59197344  0.10692175     0.98200
O344        O  0.38254666  0.63694030  0.11275862    -0.77900
C345        C  0.32203788  0.88383776  0.04178720    -0.08900
C346        C  0.29182969  0.86871245  0.07245652    -0.10400
C347        C  0.32104392  0.88341535  0.29654103    -0.08900
C348        C  0.29143808  0.86814538  0.26537033    -0.10400
C349        C  0.36571406  0.56131393  0.26653355    -0.08900
C350        C  0.37959354  0.54779856  0.29988725    -0.10400
C351        C  0.38036012  0.57690756  0.07272366    -0.08900
C352        C  0.39504484  0.56390821  0.04306075    -0.10400
C353        C  0.38585867  0.98879609  0.35367719    -0.12000
C354        C  0.38837053  0.95760820  0.32781968    -0.27200
H355        H  0.36504363  0.47430732  0.05173741     0.17000
H356        H  0.41077555  0.97270043  0.29721229     0.17600
C357        C  0.07464937  0.65140262  0.05263979    -0.08900
C358        C  0.09014812  0.67895919  0.08219346    -0.10400
C359        C  0.07096731  0.64817110  0.30754561    -0.08900
C360        C  0.08605010  0.67659796  0.27470972    -0.10400
C361        C  0.00072951  0.57996082  0.35833964    -0.12000
C362        C  0.46348904  0.57269440  0.32871899    -0.27200
H363        H  0.98959091  0.56006376  0.05769398     0.17000
H364        H  0.47473612  0.59150092  0.29561333     0.17600
C365        C  0.17778092  0.56450214  0.06551611    -0.08900
C366        C  0.14862313  0.54946656  0.03398321    -0.10400
C367        C  0.14702285  0.55371568  0.28783967    -0.08900
C368        C  0.17606804  0.56666786  0.25695022    -0.10400
C369        C  0.08769030  0.59241781  0.35479546    -0.13400
C370        C  0.08296190  0.56073811  0.99188212    -0.27200
H371        H  0.11467941  0.60145260  0.04932775     0.17000
H372        H  0.05613116  0.55289818  0.29726413     0.17600
C373        C  0.10178322  0.87239030  0.25640213    -0.08900
C374        C  0.08621339  0.88465830  0.28565038    -0.10400
C375        C  0.07466279  0.87478374  0.03057800    -0.08900
C376        C  0.08767473  0.85998995  0.06386233    -0.10400
C377        C  0.09738494  0.95175879  0.99193530    -0.12000
C378        C  0.07849709  0.98115451  0.99396693    -0.27200
H379        H  0.13909253  0.96851325  0.32686047     0.17000
H380        H  0.03706484  0.46551610  0.99390590     0.17600
C381        C  0.38495342  0.75848162  0.25442238    -0.08900
C382        C  0.40125154  0.78662406  0.28425150    -0.10400
C383        C  0.38431249  0.78345895  0.02745062    -0.08900
C384        C  0.36931102  0.75616365  0.06056809    -0.10400
C385        C  0.00853700  0.87681853  0.97689108    -0.12000
C386        C  0.46930373  0.84345796  0.00308712    -0.27200
H387        H  0.99959259  0.88871385  0.27788204     0.17000
H388        H  0.47861549  0.83292994  0.03592492     0.17600
C389        C  0.39265485  0.85161655  0.31144325    -0.12000
C390        C  0.39068237  0.88014916  0.34120108    -0.27200
H391        H  0.37472855  0.84909094  0.27872078     0.17000
H392        H  0.41100816  0.88449436  0.03964591     0.17600
C393        C  0.41267319  0.81746419  0.32265264     0.01900
C394        C  0.06538930  0.89674758  0.65530402     0.01900
C395        C  0.11427873  0.53637024  0.32757364     0.01900
C396        C  0.05769883  0.61753086  0.68376236     0.01900
C397        C  0.40648061  0.54273545  0.67326384     0.01900
C398        C  0.35611204  0.90156243  0.66878091     0.01900
O399        O  0.25037322  0.87854364  0.53510172    -0.77400
C400        C  0.11007247  0.71263736  0.44973832     1.01900
O401        O  0.15793432  0.73684983  0.45681223    -0.66500
O402        O  0.24787123  0.81667820  0.46857169    -0.70100
Al403      Al  0.19126979  0.77153990  0.50771532     1.49000
C404        C  0.25440245  0.85141559  0.44104696     0.97200
O405        O  0.14660510  0.87535188  0.45577433    -0.76300
O406        O  0.08474465  0.81716507  0.53653494    -0.69900
Al407      Al  0.19462078  0.86980481  0.49601737     1.90100
O408        O  0.08336125  0.79919349  0.44814146    -0.69000
O409        O  0.08575930  0.73774442  0.56054595    -0.68800
O410        O  0.07928037  0.71753759  0.47197807    -0.74500
O411        O  0.14260588  0.71828089  0.54790532    -0.72700
O412        O  0.15832994  0.80411367  0.50265940    -1.08800
O413        O  0.22803570  0.80333716  0.55925313    -0.68000
C414        C  0.25495124  0.84910726  0.56267192     1.02700
C415        C  0.10664334  0.84408208  0.43555734     0.99100
Al416      Al  0.08928910  0.77082613  0.50419711     1.55600
O417        O  0.22886060  0.87150866  0.44413345    -0.72600
C418        C  0.10571296  0.71252019  0.57045834     1.03300
C419        C  0.11810288  0.85464292  0.55605334     0.98200
O420        O  0.16520455  0.87632879  0.54686863    -0.77900
O421        O  0.38579799  0.71820204  0.45665689    -0.77400
C422        C  0.21337027  0.58515257  0.55554763     1.01900
O423        O  0.24161195  0.63087758  0.54839758    -0.66500
O424        O  0.32543829  0.71649430  0.53022031    -0.70100
Al425      Al  0.27571372  0.66260846  0.49462592     1.49000
C426        C  0.36366926  0.72273530  0.55401102     0.97200
O427        O  0.38389434  0.61784590  0.53834106    -0.76300
O428        O  0.32307658  0.56024921  0.46385878    -0.69900
Al429      Al  0.37835168  0.66495552  0.49743753     1.90100
O430        O  0.30319765  0.55981732  0.55271107    -0.69000
O431        O  0.24138151  0.56415735  0.44326217    -0.68800
O432        O  0.21727490  0.55588052  0.53258919    -0.74500
O433        O  0.21861990  0.61600965  0.45813478    -0.72700
O434        O  0.30962188  0.63115382  0.49676645    -1.08800
O435        O  0.30584020  0.69734119  0.44075969    -0.68000
C436        C  0.35306570  0.72247439  0.43232504     1.02700
C437        C  0.35040217  0.58061499  0.56178915     0.99100
Al438      Al  0.27421621  0.56553003  0.49800961     1.55600
O439        O  0.38377486  0.69801598  0.54877517    -0.72600
C440        C  0.21429247  0.58261439  0.43500796     1.03300
C441        C  0.36106782  0.59197346  0.44025512     0.98200
O442        O  0.38254672  0.63694044  0.44609180    -0.77900
C443        C  0.32203781  0.88383782  0.37512047    -0.08900
C444        C  0.29182963  0.86871233  0.40578977    -0.10400
C445        C  0.32104381  0.88341510  0.62987425    -0.08900
C446        C  0.29143795  0.86814527  0.59870362    -0.10400
C447        C  0.36571405  0.56131393  0.59986683    -0.08900
C448        C  0.37959363  0.54779861  0.63322049    -0.10400
C449        C  0.38036002  0.57690769  0.40605682    -0.08900
C450        C  0.39504486  0.56390826  0.37639402    -0.10400
C451        C  0.38585876  0.98879601  0.68701052    -0.12000
C452        C  0.38837045  0.95760801  0.66115293    -0.27200
H453        H  0.36504406  0.47430733  0.38507083     0.17000
H454        H  0.41077547  0.97270021  0.63054550     0.17600
C455        C  0.07464923  0.65140259  0.38597296    -0.08900
C456        C  0.09014779  0.67895901  0.41552677    -0.10400
C457        C  0.07096739  0.64817116  0.64087898    -0.08900
C458        C  0.08605001  0.67659789  0.60804301    -0.10400
C459        C  0.00072958  0.57996098  0.69167272    -0.12000
C460        C  0.46348899  0.57269426  0.66205243    -0.27200
H461        H  0.98959081  0.56006360  0.39102729     0.17000
H462        H  0.47473594  0.59150061  0.62894719     0.17600
C463        C  0.17778084  0.56450207  0.39884953    -0.08900
C464        C  0.14862317  0.54946642  0.36731659    -0.10400
C465        C  0.14702275  0.55371562  0.62117290    -0.08900
C466        C  0.17606812  0.56666783  0.59028358    -0.10400
C467        C  0.08768987  0.59241755  0.68812818    -0.13400
C468        C  0.08296202  0.56073796  0.32521582    -0.27200
H469        H  0.11467900  0.60145253  0.38266124     0.17000
H470        H  0.05613041  0.55289794  0.63059648     0.17600
C471        C  0.10178308  0.87239008  0.58973562    -0.08900
C472        C  0.08621309  0.88465807  0.61898373    -0.10400
C473        C  0.07466289  0.87478381  0.36391119    -0.08900
C474        C  0.08767466  0.85998983  0.39719555    -0.10400
C475        C  0.09738511  0.95175903  0.32526863    -0.12000
C476        C  0.07849727  0.98115465  0.32730014    -0.27200
H477        H  0.13909241  0.96851301  0.66019361     0.17000
H478        H  0.03706468  0.46551564  0.32723896     0.17600
C479        C  0.38495344  0.75848148  0.58775590    -0.08900
C480        C  0.40125156  0.78662400  0.61758495    -0.10400
C481        C  0.38431271  0.78345895  0.36078409    -0.08900
C482        C  0.36931083  0.75616362  0.39390149    -0.10400
C483        C  0.00853700  0.87681866  0.31022413    -0.12000
C484        C  0.46930358  0.84345823  0.33642008    -0.27200
H485        H  0.99959179  0.88871358  0.61121470     0.17000
H486        H  0.47861547  0.83293031  0.36925771     0.17600
C487        C  0.39265473  0.85161637  0.64477639    -0.12000
C488        C  0.39068206  0.88014895  0.67453409    -0.27200
H489        H  0.37472807  0.84909029  0.61205412     0.17000
H490        H  0.41100805  0.88449391  0.37297996     0.17600
C491        C  0.41267320  0.81746410  0.65598611     0.01900
C492        C  0.06538940  0.89674752  0.98863763     0.01900
C493        C  0.11427854  0.53637026  0.66090672     0.01900
C494        C  0.05769895  0.61753084  0.01709591     0.01900
C495        C  0.40648061  0.54273557  0.00659729     0.01900
C496        C  0.35611223  0.90156260  0.00211430     0.01900
O497        O  0.25037307  0.87854347  0.86843517    -0.77400
C498        C  0.11007242  0.71263731  0.78307180     1.01900
O499        O  0.15793421  0.73684980  0.79014552    -0.66500
O500        O  0.24787131  0.81667835  0.80190523    -0.70100
Al501      Al  0.19126976  0.77153993  0.84104871     1.49000
C502        C  0.25440238  0.85141554  0.77438032     0.97200
O503        O  0.14660507  0.87535202  0.78910774    -0.76300
O504        O  0.08474469  0.81716519  0.86986813    -0.69900
Al505      Al  0.19462075  0.86980477  0.82935079     1.90100
O506        O  0.08336124  0.79919346  0.78147489    -0.69000
O507        O  0.08575932  0.73774440  0.89387934    -0.68800
O508        O  0.07928035  0.71753766  0.80531150    -0.74500
O509        O  0.14260581  0.71828084  0.88123878    -0.72700
O510        O  0.15832990  0.80411357  0.83599281    -1.08800
O511        O  0.22803572  0.80333722  0.89258662    -0.68000
C512        C  0.25495144  0.84910727  0.89600531     1.02700
C513        C  0.10664331  0.84408215  0.76889077     0.99100
Al514      Al  0.08928921  0.77082613  0.83753059     1.55600
O515        O  0.22886076  0.87150875  0.77746686    -0.72600
C516        C  0.10571297  0.71252022  0.90379186     1.03300
C517        C  0.11810293  0.85464276  0.88938689     0.98200
O518        O  0.16520459  0.87632878  0.88020201    -0.77900
O519        O  0.38579811  0.71820198  0.78999038    -0.77400
C520        C  0.21337043  0.58515262  0.88888096     1.01900
O521        O  0.24161204  0.63087765  0.88173084    -0.66500
O522        O  0.32543837  0.71649423  0.86355350    -0.70100
Al523      Al  0.27571375  0.66260829  0.82795915     1.49000
C524        C  0.36366929  0.72273524  0.88734429     0.97200
O525        O  0.38389442  0.61784580  0.87167449    -0.76300
O526        O  0.32307661  0.56024915  0.79719216    -0.69900
Al527      Al  0.37835172  0.66495536  0.83077083     1.90100
O528        O  0.30319759  0.55981713  0.88604444    -0.69000
O529        O  0.24138156  0.56415721  0.77659540    -0.68800
O530        O  0.21727495  0.55588052  0.86592252    -0.74500
O531        O  0.21861999  0.61600950  0.79146802    -0.72700
O532        O  0.30962188  0.63115360  0.83009977    -1.08800
O533        O  0.30584020  0.69734098  0.77409289    -0.68000
C534        C  0.35306577  0.72247416  0.76565835     1.02700
C535        C  0.35040213  0.58061483  0.89512253     0.99100
Al536      Al  0.27421619  0.56552984  0.83134294     1.55600
O537        O  0.38377485  0.69801584  0.88210856    -0.72600
C538        C  0.21429241  0.58261413  0.76834126     1.03300
C539        C  0.36106772  0.59197334  0.77358841     0.98200
O540        O  0.38254672  0.63694024  0.77942525    -0.77900
C541        C  0.32203763  0.88383775  0.70845381    -0.08900
C542        C  0.29182954  0.86871239  0.73912319    -0.10400
C543        C  0.32104406  0.88341536  0.96320770    -0.08900
C544        C  0.29143804  0.86814530  0.93203718    -0.10400
C545        C  0.36571385  0.56131378  0.93320028    -0.08900
C546        C  0.37959364  0.54779863  0.96655389    -0.10400
C547        C  0.38036009  0.57690764  0.73939018    -0.08900
C548        C  0.39504485  0.56390823  0.70972729    -0.10400
C549        C  0.38585890  0.98879623  0.02034378    -0.12000
C550        C  0.38837061  0.95760820  0.99448614    -0.27200
H551        H  0.36504314  0.47430703  0.71840402     0.17000
H552        H  0.41077581  0.97270026  0.96387899     0.17600
C553        C  0.07464947  0.65140285  0.71930630    -0.08900
C554        C  0.09014814  0.67895932  0.74886010    -0.10400
C555        C  0.07096728  0.64817095  0.97421236    -0.08900
C556        C  0.08604990  0.67659790  0.94137654    -0.10400
C557        C  0.00072964  0.57996091  0.02500628    -0.12000
C558        C  0.46348896  0.57269417  0.99538604    -0.27200
H559        H  0.98959092  0.56006436  0.72436050     0.17000
H560        H  0.47473585  0.59150031  0.96228063     0.17600
C561        C  0.17778082  0.56450189  0.73218268    -0.08900
C562        C  0.14862303  0.54946641  0.70064975    -0.10400
C563        C  0.14702291  0.55371562  0.95450620    -0.08900
C564        C  0.17606818  0.56666775  0.92361678    -0.10400
C565        C  0.08769009  0.59241770  0.02146184    -0.13400
C566        C  0.08296159  0.56073782  0.65854849    -0.27200
H567        H  0.11467880  0.60145239  0.71599362     0.17000
H568        H  0.05613013  0.55289782  0.96393014     0.17600
C569        C  0.10178304  0.87239025  0.92306892    -0.08900
C570        C  0.08621309  0.88465824  0.95231710    -0.10400
C571        C  0.07466269  0.87478385  0.69724461    -0.08900
C572        C  0.08767471  0.85999013  0.73052901    -0.10400
C573        C  0.09738504  0.95175893  0.65860190    -0.12000
C574        C  0.07849715  0.98115460  0.66063348    -0.27200
H575        H  0.13909211  0.96851260  0.99352713     0.17000
H576        H  0.03706485  0.46551616  0.66057196     0.17600
C577        C  0.38495343  0.75848147  0.92108914    -0.08900
C578        C  0.40125150  0.78662401  0.95091817    -0.10400
C579        C  0.38431266  0.78345883  0.69411747    -0.08900
C580        C  0.36931091  0.75616355  0.72723491    -0.10400
C581        C  0.00853673  0.87681862  0.64355727    -0.12000
C582        C  0.46930356  0.84345817  0.66975349    -0.27200
H583        H  0.99959235  0.88871359  0.94454909     0.17000
H584        H  0.47861565  0.83293044  0.70259166     0.17600
C585        C  0.39265495  0.85161639  0.97810984    -0.12000
C586        C  0.39068219  0.88014902  0.00786756    -0.27200
H587        H  0.37472912  0.84909092  0.94538750     0.17000
H588        H  0.41100810  0.88449419  0.70631249     0.17600
C589        C  0.91267331  0.31746411  0.98931929     0.01900
C590        C  0.56538942  0.39674767  0.32197080     0.01900
C591        C  0.61427880  0.03637036  0.99424006     0.01900
C592        C  0.55769895  0.11753095  0.35042907     0.01900
C593        C  0.90648058  0.04273546  0.33993052     0.01900
C594        C  0.85611235  0.40156271  0.33544779     0.01900
O595        O  0.75037317  0.37854370  0.20176848    -0.77400
C596        C  0.61007266  0.21263748  0.11640509     1.01900
O597        O  0.65793456  0.23685015  0.12347871    -0.66500
O598        O  0.74787148  0.31667846  0.13523858    -0.70100
Al599      Al  0.69126988  0.27154006  0.17438206     1.49000
C600        C  0.75440267  0.35141584  0.10771373     0.97200
O601        O  0.64660501  0.37535195  0.12244097    -0.76300
O602        O  0.58474466  0.31716517  0.20320141    -0.69900
Al603      Al  0.69462079  0.36980494  0.16268403     1.90100
O604        O  0.58336131  0.29919353  0.11480819    -0.69000
O605        O  0.58575953  0.23774463  0.22721283    -0.68800
O606        O  0.57928049  0.21753767  0.13864489    -0.74500
O607        O  0.64260595  0.21828103  0.21457207    -0.72700
O608        O  0.65832996  0.30411375  0.16932611    -1.08800
O609        O  0.72803573  0.30333740  0.22592000    -0.68000
C610        C  0.75495141  0.34910746  0.22933864     1.02700
C611        C  0.60664333  0.34408211  0.10222396     0.99100
Al612      Al  0.58928919  0.27082624  0.17086386     1.55600
O613        O  0.72886070  0.37150883  0.11080004    -0.72600
C614        C  0.60571299  0.21252023  0.23712505     1.03300
C615        C  0.61810293  0.35464283  0.22272006     0.98200
O616        O  0.66520461  0.37632889  0.21353521    -0.77900
O617        O  0.88579803  0.21820206  0.12332360    -0.77400
C618        C  0.71337027  0.08515267  0.22221428     1.01900
O619        O  0.74161197  0.13087771  0.21506428    -0.66500
O620        O  0.82543834  0.21649436  0.19688695    -0.70100
Al621      Al  0.77571374  0.16260845  0.16129249     1.49000
C622        C  0.86366927  0.22273531  0.22067763     0.97200
O623        O  0.88389431  0.11784589  0.20500772    -0.76300
O624        O  0.82307676  0.06024924  0.13052550    -0.69900
Al625      Al  0.87835168  0.16495545  0.16410420     1.90100
O626        O  0.80319747  0.05981729  0.21937776    -0.69000
O627        O  0.74138166  0.06415746  0.10992881    -0.68800
O628        O  0.71727482  0.05588061  0.19925582    -0.74500
O629        O  0.71861990  0.11600966  0.12480131    -0.72700
O630        O  0.80962190  0.13115376  0.16343322    -1.08800
O631        O  0.80584012  0.19734115  0.10742629    -0.68000
C632        C  0.85306571  0.22247435  0.09899167     1.02700
C633        C  0.85040204  0.08061493  0.22845582     0.99100
Al634      Al  0.77421621  0.06553002  0.16467623     1.55600
O635        O  0.88377478  0.19801589  0.21544182    -0.72600
C636        C  0.71429253  0.08261441  0.10167455     1.03300
C637        C  0.86106764  0.09197341  0.10692163     0.98200
O638        O  0.88254664  0.13694027  0.11275857    -0.77900
C639        C  0.82203796  0.38383786  0.04178712    -0.08900
C640        C  0.79182972  0.36871252  0.07245639    -0.10400
C641        C  0.82104399  0.38341525  0.29654101    -0.08900
C642        C  0.79143798  0.36814550  0.26537041    -0.10400
C643        C  0.86571383  0.06131384  0.26653365    -0.08900
C644        C  0.87959367  0.04779858  0.29988719    -0.10400
C645        C  0.88035996  0.07690758  0.07272357    -0.08900
C646        C  0.89504469  0.06390814  0.04306073    -0.10400
C647        C  0.88585851  0.48879603  0.35367745    -0.12000
C648        C  0.88837050  0.45760828  0.32781989    -0.27200
H649        H  0.86504373  0.97430750  0.05173674     0.17000
H650        H  0.91077584  0.47270074  0.29721258     0.17600
C651        C  0.57464941  0.15140277  0.05263974    -0.08900
C652        C  0.59014812  0.17895925  0.08219351    -0.10400
C653        C  0.57096750  0.14817127  0.30754560    -0.08900
C654        C  0.58605016  0.17659807  0.27470971    -0.10400
C655        C  0.50072961  0.07996103  0.35833934    -0.12000
C656        C  0.96348889  0.07269416  0.32871926    -0.27200
H657        H  0.48959082  0.06006446  0.05769382     0.17000
H658        H  0.97473590  0.09150061  0.29561396     0.17600
C659        C  0.67778103  0.06450225  0.06551600    -0.08900
C660        C  0.64862327  0.04946671  0.03398308    -0.10400
C661        C  0.64702287  0.05371572  0.28783943    -0.08900
C662        C  0.67606792  0.06666773  0.25694994    -0.10400
C663        C  0.58769016  0.09241771  0.35479530    -0.13400
C664        C  0.58296195  0.06073798  0.99188217    -0.27200
H665        H  0.61467867  0.10145218  0.04932787     0.17000
H666        H  0.55613027  0.05289788  0.29726402     0.17600
C667        C  0.60178304  0.37239025  0.25640213    -0.08900
C668        C  0.58621314  0.38465826  0.28565036    -0.10400
C669        C  0.57466285  0.37478383  0.03057782    -0.08900
C670        C  0.58767457  0.35998993  0.06386226    -0.10400
C671        C  0.59738490  0.45175890  0.99193529    -0.12000
C672        C  0.57849718  0.48115477  0.99396687    -0.27200
H673        H  0.63909246  0.46851317  0.32686053     0.17000
H674        H  0.53706483  0.96551612  0.99390590     0.17600
C675        C  0.88495329  0.25848143  0.25442248    -0.08900
C676        C  0.90125140  0.28662404  0.28425144    -0.10400
C677        C  0.88431258  0.28345897  0.02745062    -0.08900
C678        C  0.86931105  0.25616372  0.06056811    -0.10400
C679        C  0.50853684  0.37681873  0.97689079    -0.12000
C680        C  0.96930368  0.34345814  0.00308676    -0.27200
H681        H  0.49959200  0.38871376  0.27788214     0.17000
H682        H  0.97861563  0.33293025  0.03592469     0.17600
C683        C  0.89265473  0.35161644  0.31144318    -0.12000
C684        C  0.89068237  0.38014913  0.34120092    -0.27200
H685        H  0.87472874  0.34909117  0.27872033     0.17000
H686        H  0.91100832  0.38449444  0.03964572     0.17600
C687        C  0.91267314  0.31746415  0.32265262     0.01900
C688        C  0.56538936  0.39674763  0.65530399     0.01900
C689        C  0.61427867  0.03637028  0.32757334     0.01900
C690        C  0.55769890  0.11753089  0.68376236     0.01900
C691        C  0.90648052  0.04273537  0.67326386     0.01900
C692        C  0.85611214  0.40156256  0.66878098     0.01900
O693        O  0.75037303  0.37854356  0.53510178    -0.77400
C694        C  0.61007240  0.21263738  0.44973830     1.01900
O695        O  0.65793419  0.23684987  0.45681203    -0.66500
O696        O  0.74787124  0.31667839  0.46857178    -0.70100
Al697      Al  0.69126975  0.27153996  0.50771527     1.49000
C698        C  0.75440240  0.35141563  0.44104694     0.97200
O699        O  0.64660485  0.37535190  0.45577420    -0.76300
O700        O  0.58474456  0.31716515  0.53653470    -0.69900
Al701      Al  0.69462074  0.36980477  0.49601731     1.90100
O702        O  0.58336117  0.29919348  0.44814142    -0.69000
O703        O  0.58575926  0.23774467  0.56054595    -0.68800
O704        O  0.57928036  0.21753763  0.47197814    -0.74500
O705        O  0.64260576  0.21828088  0.54790529    -0.72700
O706        O  0.65832998  0.30411362  0.50265938    -1.08800
O707        O  0.72803566  0.30333728  0.55925311    -0.68000
C708        C  0.75495126  0.34910731  0.56267187     1.02700
C709        C  0.60664318  0.34408206  0.43555722     0.99100
Al710      Al  0.58928919  0.27082622  0.50419708     1.55600
O711        O  0.72886058  0.37150866  0.44413340    -0.72600
C712        C  0.60571282  0.21252029  0.57045828     1.03300
C713        C  0.61810284  0.35464279  0.55605336     0.98200
O714        O  0.66520450  0.37632885  0.54686844    -0.77900
O715        O  0.88579789  0.21820200  0.45665686    -0.77400
C716        C  0.71337025  0.08515261  0.55554762     1.01900
O717        O  0.74161179  0.13087765  0.54839756    -0.66500
O718        O  0.82543825  0.21649420  0.53022033    -0.70100
Al719      Al  0.77571376  0.16260839  0.49462588     1.49000
C720        C  0.86366926  0.22273522  0.55401099     0.97200
O721        O  0.88389420  0.11784575  0.53834095    -0.76300
O722        O  0.82307667  0.06024925  0.46385877    -0.69900
Al723      Al  0.87835162  0.16495541  0.49743744     1.90100
O724        O  0.80319748  0.05981726  0.55271111    -0.69000
O725        O  0.74138164  0.06415743  0.44326215    -0.68800
O726        O  0.71727480  0.05588062  0.53258901    -0.74500
O727        O  0.71861975  0.11600965  0.45813463    -0.72700
O728        O  0.80962193  0.13115373  0.49676638    -1.08800
O729        O  0.80584011  0.19734115  0.44075972    -0.68000
C730        C  0.85306562  0.22247438  0.43232506     1.02700
C731        C  0.85040198  0.08061484  0.56178912     0.99100
Al732      Al  0.77421618  0.06553001  0.49800954     1.55600
O733        O  0.88377483  0.19801587  0.54877509    -0.72600
C734        C  0.71429247  0.08261441  0.43500787     1.03300
C735        C  0.86106770  0.09197339  0.44025501     0.98200
O736        O  0.88254652  0.13694028  0.44609179    -0.77900
C737        C  0.82203779  0.38383780  0.37512053    -0.08900
C738        C  0.79182957  0.36871239  0.40578979    -0.10400
C739        C  0.82104388  0.38341534  0.62987414    -0.08900
C740        C  0.79143791  0.36814538  0.59870355    -0.10400
C741        C  0.86571366  0.06131362  0.59986685    -0.08900
C742        C  0.87959370  0.04779866  0.63322045    -0.10400
C743        C  0.88035998  0.07690756  0.40605686    -0.08900
C744        C  0.89504483  0.06390827  0.37639398    -0.10400
C745        C  0.88585862  0.48879602  0.68701066    -0.12000
C746        C  0.88837035  0.45760813  0.66115309    -0.27200
H747        H  0.86504408  0.97430731  0.38507085     0.17000
H748        H  0.91077571  0.47270053  0.63054581     0.17600
C749        C  0.57464933  0.15140274  0.38597296    -0.08900
C750        C  0.59014806  0.17895920  0.41552673    -0.10400
C751        C  0.57096745  0.14817116  0.64087887    -0.08900
C752        C  0.58605001  0.17659805  0.60804300    -0.10400
C753        C  0.50072958  0.07996098  0.69167261    -0.12000
C754        C  0.96348878  0.07269408  0.66205246    -0.27200
H755        H  0.48959076  0.06006436  0.39102713     0.17000
H756        H  0.97473569  0.09150022  0.62894710     0.17600
C757        C  0.67778093  0.06450227  0.39884928    -0.08900
C758        C  0.64862321  0.04946654  0.36731633    -0.10400
C759        C  0.64702266  0.05371564  0.62117274    -0.08900
C760        C  0.67606776  0.06666769  0.59028324    -0.10400
C761        C  0.58769022  0.09241781  0.68812840    -0.13400
C762        C  0.58296175  0.06073789  0.32521559    -0.27200
H763        H  0.61467904  0.10145244  0.38266108     0.17000
H764        H  0.55613070  0.05289801  0.63059685     0.17600
C765        C  0.60178304  0.37239021  0.58973546    -0.08900
C766        C  0.58621310  0.38465816  0.61898366    -0.10400
C767        C  0.57466281  0.37478387  0.36391118    -0.08900
C768        C  0.58767461  0.35998992  0.39719549    -0.10400
C769        C  0.59738505  0.45175904  0.32526855    -0.12000
C770        C  0.57849712  0.48115461  0.32730019    -0.27200
H771        H  0.63909247  0.46851306  0.66019360     0.17000
H772        H  0.53706494  0.96551584  0.32723920     0.17600
C773        C  0.88495339  0.25848136  0.58775595    -0.08900
C774        C  0.90125137  0.28662400  0.61758488    -0.10400
C775        C  0.88431245  0.28345899  0.36078410    -0.08900
C776        C  0.86931090  0.25616364  0.39390153    -0.10400
C777        C  0.50853678  0.37681849  0.31022422    -0.12000
C778        C  0.96930360  0.34345811  0.33642033    -0.27200
H779        H  0.49959217  0.38871355  0.61121470     0.17000
H780        H  0.97861532  0.33293047  0.36925831     0.17600
C781        C  0.89265462  0.35161623  0.64477659    -0.12000
C782        C  0.89068217  0.38014897  0.67453429    -0.27200
H783        H  0.87472785  0.34909016  0.61205432     0.17000
H784        H  0.91100840  0.38449376  0.37297988     0.17600
C785        C  0.91267307  0.31746405  0.65598597     0.01900
C786        C  0.56538930  0.39674755  0.98863741     0.01900
C787        C  0.61427855  0.03637022  0.66090671     0.01900
C788        C  0.55769890  0.11753096  0.01709578     0.01900
C789        C  0.90648056  0.04273557  0.00659704     0.01900
C790        C  0.85611232  0.40156274  0.00211423     0.01900
O791        O  0.75037299  0.37854356  0.86843513    -0.77400
C792        C  0.61007248  0.21263741  0.78307176     1.01900
O793        O  0.65793429  0.23685006  0.79014550    -0.66500
O794        O  0.74787135  0.31667846  0.80190530    -0.70100
Al795      Al  0.69126982  0.27153995  0.84104867     1.49000
C796        C  0.75440245  0.35141568  0.77438032     0.97200
O797        O  0.64660510  0.37535205  0.78910761    -0.76300
O798        O  0.58474448  0.31716513  0.86986809    -0.69900
Al799      Al  0.69462082  0.36980492  0.82935072     1.90100
O800        O  0.58336116  0.29919341  0.78147475    -0.69000
O801        O  0.58575928  0.23774460  0.89387944    -0.68800
O802        O  0.57928036  0.21753759  0.80531152    -0.74500
O803        O  0.64260577  0.21828089  0.88123878    -0.72700
O804        O  0.65833004  0.30411369  0.83599266    -1.08800
O805        O  0.72803561  0.30333733  0.89258659    -0.68000
C806        C  0.75495125  0.34910738  0.89600535     1.02700
C807        C  0.60664339  0.34408208  0.76889056     0.99100
Al808      Al  0.58928918  0.27082620  0.83753048     1.55600
O809        O  0.72886067  0.37150879  0.77746664    -0.72600
C810        C  0.60571278  0.21252019  0.90379176     1.03300
C811        C  0.61810281  0.35464292  0.88938664     0.98200
O812        O  0.66520449  0.37632900  0.88020191    -0.77900
O813        O  0.88579801  0.21820185  0.78999042    -0.77400
C814        C  0.71337037  0.08515253  0.88888100     1.01900
O815        O  0.74161197  0.13087755  0.88173091    -0.66500
O816        O  0.82543840  0.21649420  0.86355351    -0.70100
Al817      Al  0.77571375  0.16260823  0.82795914     1.49000
C818        C  0.86366935  0.22273522  0.88734429     0.97200
O819        O  0.88389418  0.11784554  0.87167454    -0.76300
O820        O  0.82307668  0.06024913  0.79719207    -0.69900
Al821      Al  0.87835164  0.16495522  0.83077087     1.90100
O822        O  0.80319752  0.05981706  0.88604430    -0.69000
O823        O  0.74138167  0.06415727  0.77659534    -0.68800
O824        O  0.71727481  0.05588049  0.86592242    -0.74500
O825        O  0.71861991  0.11600938  0.79146790    -0.72700
O826        O  0.80962187  0.13115355  0.83009975    -1.08800
O827        O  0.80584029  0.19734097  0.77409295    -0.68000
C828        C  0.85306580  0.22247422  0.76565843     1.02700
C829        C  0.85040194  0.08061470  0.89512256     0.99100
Al830      Al  0.77421619  0.06552983  0.83134282     1.55600
O831        O  0.88377488  0.19801579  0.88210858    -0.72600
C832        C  0.71429255  0.08261420  0.76834108     1.03300
C833        C  0.86106788  0.09197332  0.77358843     0.98200
O834        O  0.88254672  0.13694019  0.77942519    -0.77900
C835        C  0.82203771  0.38383773  0.70845380    -0.08900
C836        C  0.79182954  0.36871246  0.73912307    -0.10400
C837        C  0.82104402  0.38341548  0.96320770    -0.08900
C838        C  0.79143811  0.36814551  0.93203708    -0.10400
C839        C  0.86571366  0.06131351  0.93320007    -0.08900
C840        C  0.87959348  0.04779848  0.96655369    -0.10400
C841        C  0.88036010  0.07690763  0.73939010    -0.08900
C842        C  0.89504487  0.06390824  0.70972724    -0.10400
C843        C  0.88585876  0.48879618  0.02034403    -0.12000
C844        C  0.88837068  0.45760838  0.99448637    -0.27200
H845        H  0.86504324  0.97430703  0.71840414     0.17000
H846        H  0.91077615  0.47270095  0.96387908     0.17600
C847        C  0.57464938  0.15140277  0.71930632    -0.08900
C848        C  0.59014815  0.17895925  0.74886012    -0.10400
C849        C  0.57096725  0.14817109  0.97421232    -0.08900
C850        C  0.58605003  0.17659803  0.94137653    -0.10400
C851        C  0.50072955  0.07996106  0.02500603    -0.12000
C852        C  0.96348892  0.07269422  0.99538585    -0.27200
H853        H  0.48959081  0.06006427  0.72436041     0.17000
H854        H  0.97473599  0.09150067  0.96228057     0.17600
C855        C  0.67778097  0.06450199  0.73218255    -0.08900
C856        C  0.64862321  0.04946649  0.70064961    -0.10400
C857        C  0.64702291  0.05371568  0.95450609    -0.08900
C858        C  0.67606799  0.06666763  0.92361662    -0.10400
C859        C  0.58769015  0.09241777  0.02146186    -0.13400
C860        C  0.58296179  0.06073790  0.65854878    -0.27200
H861        H  0.61467917  0.10145263  0.71599413     0.17000
H862        H  0.55613121  0.05289843  0.96393007     0.17600
C863        C  0.60178328  0.37239042  0.92306874    -0.08900
C864        C  0.58621320  0.38465819  0.95231697    -0.10400
C865        C  0.57466272  0.37478374  0.69724450    -0.08900
C866        C  0.58767463  0.35998991  0.73052888    -0.10400
C867        C  0.59738511  0.45175901  0.65860181    -0.12000
C868        C  0.57849726  0.48115469  0.66063350    -0.27200
H869        H  0.63909201  0.46851269  0.99352723     0.17000
H870        H  0.53706470  0.96551598  0.66057217     0.17600
C871        C  0.88495348  0.25848145  0.92108913    -0.08900
C872        C  0.90125145  0.28662399  0.95091814    -0.10400
C873        C  0.88431262  0.28345888  0.69411746    -0.08900
C874        C  0.86931088  0.25616357  0.72723489    -0.10400
C875        C  0.50853682  0.37681863  0.64355728    -0.12000
C876        C  0.96930347  0.34345816  0.66975335    -0.27200
H877        H  0.49959217  0.38871358  0.94454829     0.17000
H878        H  0.97861526  0.33293062  0.70259101     0.17600
C879        C  0.89265484  0.35161633  0.97810971    -0.12000
C880        C  0.89068219  0.38014905  0.00786738    -0.27200
H881        H  0.87472842  0.34909044  0.94538740     0.17000
H882        H  0.91100823  0.38449402  0.70631299     0.17600
C883        C  0.91267337  0.81746412  0.98931940     0.01900
C884        C  0.56538959  0.89674778  0.32197080     0.01900
C885        C  0.61427871  0.53637043  0.99424009     0.01900
C886        C  0.55769887  0.61753081  0.35042909     0.01900
C887        C  0.90648042  0.54273539  0.33993073     0.01900
C888        C  0.85611239  0.90156265  0.33544785     0.01900
O889        O  0.75037315  0.87854364  0.20176844    -0.77400
C890        C  0.61007248  0.71263743  0.11640505     1.01900
O891        O  0.65793436  0.73684992  0.12347876    -0.66500
O892        O  0.74787139  0.81667840  0.13523853    -0.70100
Al893      Al  0.69126992  0.77154007  0.17438202     1.49000
C894        C  0.75440250  0.85141568  0.10771370     0.97200
O895        O  0.64660503  0.87535193  0.12244095    -0.76300
O896        O  0.58474460  0.81716507  0.20320149    -0.69900
Al897      Al  0.69462085  0.86980494  0.16268404     1.90100
O898        O  0.58336129  0.79919354  0.11480829    -0.69000
O899        O  0.58575942  0.73774467  0.22721280    -0.68800
O900        O  0.57928035  0.71753761  0.13864491    -0.74500
O901        O  0.64260586  0.71828086  0.21457204    -0.72700
O902        O  0.65833012  0.80411386  0.16932609    -1.08800
O903        O  0.72803573  0.80333732  0.22591990    -0.68000
C904        C  0.75495124  0.84910735  0.22933868     1.02700
C905        C  0.60664340  0.84408209  0.10222396     0.99100
Al906      Al  0.58928924  0.77082627  0.17086388     1.55600
O907        O  0.72886071  0.87150880  0.11080019    -0.72600
C908        C  0.60571299  0.71252029  0.23712509     1.03300
C909        C  0.61810283  0.85464284  0.22272002     0.98200
O910        O  0.66520450  0.87632883  0.21353523    -0.77900
O911        O  0.88579803  0.71820197  0.12332352    -0.77400
C912        C  0.71337038  0.58515269  0.22221442     1.01900
O913        O  0.74161192  0.63087771  0.21506427    -0.66500
O914        O  0.82543835  0.71649441  0.19688695    -0.70100
Al915      Al  0.77571382  0.66260854  0.16129255     1.49000
C916        C  0.86366939  0.72273543  0.22067752     0.97200
O917        O  0.88389443  0.61784606  0.20500786    -0.76300
O918        O  0.82307679  0.56024933  0.13052554    -0.69900
Al919      Al  0.87835187  0.66495557  0.16410415     1.90100
O920        O  0.80319784  0.55981751  0.21937780    -0.69000
O921        O  0.74138171  0.56415756  0.10992891    -0.68800
O922        O  0.71727499  0.55588069  0.19925591    -0.74500
O923        O  0.71861985  0.61600962  0.12480144    -0.72700
O924        O  0.80962207  0.63115394  0.16343309    -1.08800
O925        O  0.80584021  0.69734112  0.10742641    -0.68000
C926        C  0.85306574  0.72247435  0.09899172     1.02700
C927        C  0.85040230  0.58061511  0.22845589     0.99100
Al928      Al  0.77421629  0.56553013  0.16467630     1.55600
O929        O  0.88377502  0.69801603  0.21544166    -0.72600
C930        C  0.71429255  0.58261445  0.10167462     1.03300
C931        C  0.86106780  0.59197344  0.10692178     0.98200
O932        O  0.88254670  0.63694030  0.11275866    -0.77900
C933        C  0.82203790  0.88383776  0.04178720    -0.08900
C934        C  0.79182972  0.86871245  0.07245652    -0.10400
C935        C  0.82104393  0.88341531  0.29654102    -0.08900
C936        C  0.79143806  0.86814534  0.26537032    -0.10400
C937        C  0.86571403  0.56131403  0.26653361    -0.08900
C938        C  0.87959355  0.54779861  0.29988724    -0.10400
C939        C  0.88036012  0.57690756  0.07272369    -0.08900
C940        C  0.89504473  0.56390815  0.04306078    -0.10400
C941        C  0.88585860  0.98879606  0.35367718    -0.12000
C942        C  0.88837054  0.95760820  0.32781969    -0.27200
H943        H  0.86504363  0.47430727  0.05173746     0.17000
H944        H  0.91077554  0.97270042  0.29721228     0.17600
C945        C  0.57464940  0.65140266  0.05263981    -0.08900
C946        C  0.59014805  0.67895919  0.08219350    -0.10400
C947        C  0.57096742  0.64817115  0.30754561    -0.08900
C948        C  0.58605015  0.67659797  0.27470971    -0.10400
C949        C  0.50072953  0.57996101  0.35833920    -0.12000
C950        C  0.96348879  0.57269408  0.32871948    -0.27200
H951        H  0.48959086  0.56006389  0.05769401     0.17000
H952        H  0.97473564  0.59150021  0.29561428     0.17600
C953        C  0.67778095  0.56450214  0.06551609    -0.08900
C954        C  0.64862318  0.54946661  0.03398316    -0.10400
C955        C  0.64702285  0.55371565  0.28783966    -0.08900
C956        C  0.67606806  0.56666786  0.25695022    -0.10400
C957        C  0.58769028  0.59241780  0.35479547    -0.13400
C958        C  0.58296190  0.56073812  0.99188224    -0.27200
H959        H  0.61467939  0.60145255  0.04932793     0.17000
H960        H  0.55613122  0.55289824  0.29726412     0.17600
C961        C  0.60178307  0.87239022  0.25640219    -0.08900
C962        C  0.58621323  0.88465824  0.28565042    -0.10400
C963        C  0.57466284  0.87478382  0.03057798    -0.08900
C964        C  0.58767475  0.85999002  0.06386230    -0.10400
C965        C  0.59738488  0.95175880  0.99193530    -0.12000
C966        C  0.57849714  0.98115463  0.99396688    -0.27200
H967        H  0.63909320  0.96851336  0.32686048     0.17000
H968        H  0.53706484  0.46551625  0.99390579     0.17600
C969        C  0.88495333  0.75848172  0.25442236    -0.08900
C970        C  0.90125160  0.78662413  0.28425154    -0.10400
C971        C  0.88431249  0.78345893  0.02745061    -0.08900
C972        C  0.86931104  0.75616365  0.06056809    -0.10400
C973        C  0.50853702  0.87681854  0.97689110    -0.12000
C974        C  0.96930371  0.84345793  0.00308711    -0.27200
H975        H  0.49959237  0.88871409  0.27788190     0.17000
H976        H  0.97861545  0.83292987  0.03592492     0.17600
C977        C  0.89265499  0.85161662  0.31144333    -0.12000
C978        C  0.89068252  0.88014912  0.34120123    -0.27200
H979        H  0.87472867  0.84909110  0.27872083     0.17000
H980        H  0.91100818  0.88449436  0.03964591     0.17600
C981        C  0.91267325  0.81746422  0.32265267     0.01900
C982        C  0.56538939  0.89674761  0.65530404     0.01900
C983        C  0.61427870  0.53637025  0.32757364     0.01900
C984        C  0.55769883  0.61753086  0.68376232     0.01900
C985        C  0.90648058  0.54273546  0.67326385     0.01900
C986        C  0.85611199  0.90156250  0.66878087     0.01900
O987        O  0.75037319  0.87854360  0.53510178    -0.77400
C988        C  0.61007250  0.71263737  0.44973830     1.01900
O989        O  0.65793437  0.73684987  0.45681216    -0.66500
O990        O  0.74787123  0.81667830  0.46857172    -0.70100
Al991      Al  0.69126977  0.77153992  0.50771530     1.49000
C992        C  0.75440242  0.85141560  0.44104692     0.97200
O993        O  0.64660501  0.87535188  0.45577428    -0.76300
O994        O  0.58474472  0.81716512  0.53653490    -0.69900
Al995      Al  0.69462075  0.86980480  0.49601734     1.90100
O996        O  0.58336121  0.79919348  0.44814141    -0.69000
O997        O  0.58575941  0.73774449  0.56054592    -0.68800
O998        O  0.57928040  0.71753759  0.47197806    -0.74500
O999        O  0.64260587  0.71828081  0.54790532    -0.72700
O1000       O  0.65832990  0.80411366  0.50265937    -1.08800
O1001       O  0.72803565  0.80333713  0.55925319    -0.68000
C1002       C  0.75495134  0.84910724  0.56267189     1.02700
C1003       C  0.60664322  0.84408207  0.43555736     0.99100
Al1004     Al  0.58928910  0.77082614  0.50419708     1.55600
O1005       O  0.72886061  0.87150865  0.44413340    -0.72600
C1006       C  0.60571296  0.71252014  0.57045828     1.03300
C1007       C  0.61810298  0.85464291  0.55605336     0.98200
O1008       O  0.66520465  0.87632884  0.54686857    -0.77900
O1009       O  0.88579796  0.71820206  0.45665683    -0.77400
C1010       C  0.71337026  0.58515257  0.55554765     1.01900
O1011       O  0.74161196  0.63087757  0.54839762    -0.66500
O1012       O  0.82543834  0.71649432  0.53022033    -0.70100
Al1013     Al  0.77571372  0.66260844  0.49462595     1.49000
C1014       C  0.86366931  0.72273533  0.55401104     0.97200
O1015       O  0.88389426  0.61784580  0.53834107    -0.76300
O1016       O  0.82307661  0.56024921  0.46385883    -0.69900
Al1017     Al  0.87835167  0.66495551  0.49743751     1.90100
O1018       O  0.80319770  0.55981732  0.55271114    -0.69000
O1019       O  0.74138154  0.56415736  0.44326215    -0.68800
O1020       O  0.71727486  0.55588051  0.53258919    -0.74500
O1021       O  0.71861992  0.61600964  0.45813479    -0.72700
O1022       O  0.80962189  0.63115383  0.49676644    -1.08800
O1023       O  0.80584013  0.69734113  0.44075972    -0.68000
C1024       C  0.85306565  0.72247441  0.43232504     1.02700
C1025       C  0.85040213  0.58061499  0.56178922     0.99100
Al1026     Al  0.77421623  0.56553004  0.49800964     1.55600
O1027       O  0.88377489  0.69801600  0.54877519    -0.72600
C1028       C  0.71429250  0.58261439  0.43500795     1.03300
C1029       C  0.86106782  0.59197346  0.44025515     0.98200
O1030       O  0.88254673  0.63694044  0.44609180    -0.77900
C1031       C  0.82203779  0.88383783  0.37512051    -0.08900
C1032       C  0.79182957  0.86871241  0.40578976    -0.10400
C1033       C  0.82104381  0.88341516  0.62987421    -0.08900
C1034       C  0.79143789  0.86814527  0.59870365    -0.10400
C1035       C  0.86571387  0.56131391  0.59986684    -0.08900
C1036       C  0.87959361  0.54779862  0.63322040    -0.10400
C1037       C  0.88036001  0.57690772  0.40605691    -0.08900
C1038       C  0.89504478  0.56390822  0.37639417    -0.10400
C1039       C  0.88585860  0.98879595  0.68701067    -0.12000
C1040       C  0.88837031  0.95760805  0.66115305    -0.27200
H1041       H  0.86504304  0.47430698  0.38507085     0.17000
H1042       H  0.91077567  0.97270044  0.63054573     0.17600
C1043       C  0.57464920  0.65140256  0.38597296    -0.08900
C1044       C  0.59014780  0.67895900  0.41552676    -0.10400
C1045       C  0.57096745  0.64817119  0.64087892    -0.08900
C1046       C  0.58605012  0.67659790  0.60804294    -0.10400
C1047       C  0.50072958  0.57996098  0.69167271    -0.12000
C1048       C  0.96348896  0.57269425  0.66205246    -0.27200
H1049       H  0.48959043  0.56006363  0.39102698     0.17000
H1050       H  0.97473589  0.59150055  0.62894721     0.17600
C1051       C  0.67778086  0.56450206  0.39884953    -0.08900
C1052       C  0.64862317  0.54946639  0.36731659    -0.10400
C1053       C  0.64702283  0.55371561  0.62117290    -0.08900
C1054       C  0.67606808  0.56666786  0.59028350    -0.10400
C1055       C  0.58768986  0.59241755  0.68812820    -0.13400
C1056       C  0.58296207  0.56073802  0.32521580    -0.27200
H1057       H  0.61467898  0.60145252  0.38266126     0.17000
H1058       H  0.55613028  0.55289790  0.63059655     0.17600
C1059       C  0.60178307  0.87239010  0.58973556    -0.08900
C1060       C  0.58621314  0.88465809  0.61898372    -0.10400
C1061       C  0.57466283  0.87478381  0.36391125    -0.08900
C1062       C  0.58767459  0.85998984  0.39719563    -0.10400
C1063       C  0.59738545  0.95175915  0.32526861    -0.12000
C1064       C  0.57849755  0.98115470  0.32730020    -0.27200
H1065       H  0.63909247  0.96851308  0.66019362     0.17000
H1066       H  0.53706452  0.46551582  0.32723898     0.17600
C1067       C  0.88495344  0.75848147  0.58775593    -0.08900
C1068       C  0.90125145  0.78662392  0.61758499    -0.10400
C1069       C  0.88431267  0.78345899  0.36078409    -0.08900
C1070       C  0.86931093  0.75616366  0.39390150    -0.10400
C1071       C  0.50853693  0.87681874  0.31022399    -0.12000
C1072       C  0.96930361  0.84345814  0.33642020    -0.27200
H1073       H  0.49959192  0.88871363  0.61121476     0.17000
H1074       H  0.97861544  0.83293025  0.36925783     0.17600
C1075       C  0.89265460  0.85161631  0.64477644    -0.12000
C1076       C  0.89068193  0.88014896  0.67453414    -0.27200
H1077       H  0.87472800  0.84909031  0.61205413     0.17000
H1078       H  0.91100853  0.88449386  0.37298014     0.17600
C1079       C  0.91267319  0.81746411  0.65598604     0.01900
C1080       C  0.56538938  0.89674749  0.98863763     0.01900
C1081       C  0.61427855  0.53637027  0.66090672     0.01900
C1082       C  0.55769901  0.61753089  0.01709595     0.01900
C1083       C  0.90648050  0.54273549  0.00659738     0.01900
C1084       C  0.85611223  0.90156259  0.00211428     0.01900
O1085       O  0.75037299  0.87854348  0.86843526    -0.77400
C1086       C  0.61007244  0.71263737  0.78307174     1.01900
O1087       O  0.65793422  0.73684988  0.79014557    -0.66500
O1088       O  0.74787129  0.81667839  0.80190526    -0.70100
Al1089     Al  0.69126977  0.77153992  0.84104869     1.49000
C1090       C  0.75440233  0.85141557  0.77438035     0.97200
O1091       O  0.64660499  0.87535202  0.78910774    -0.76300
O1092       O  0.58474460  0.81716515  0.86986815    -0.69900
Al1093     Al  0.69462079  0.86980477  0.82935081     1.90100
O1094       O  0.58336122  0.79919344  0.78147486    -0.69000
O1095       O  0.58575930  0.73774445  0.89387932    -0.68800
O1096       O  0.57928036  0.71753761  0.80531148    -0.74500
O1097       O  0.64260572  0.71828080  0.88123876    -0.72700
O1098       O  0.65833004  0.80411358  0.83599281    -1.08800
O1099       O  0.72803571  0.80333723  0.89258653    -0.68000
C1100       C  0.75495132  0.84910727  0.89600534     1.02700
C1101       C  0.60664326  0.84408213  0.76889074     0.99100
Al1102     Al  0.58928926  0.77082614  0.83753057     1.55600
O1103       O  0.72886067  0.87150873  0.77746691    -0.72600
C1104       C  0.60571291  0.71252021  0.90379184     1.03300
C1105       C  0.61810284  0.85464273  0.88938691     0.98200
O1106       O  0.66520448  0.87632881  0.88020197    -0.77900
O1107       O  0.88579794  0.71820186  0.78999043    -0.77400
C1108       C  0.71337044  0.58515261  0.88888100     1.01900
O1109       O  0.74161210  0.63087763  0.88173095    -0.66500
O1110       O  0.82543840  0.71649425  0.86355350    -0.70100
Al1111     Al  0.77571374  0.66260826  0.82795921     1.49000
C1112       C  0.86366932  0.72273524  0.88734429     0.97200
O1113       O  0.88389445  0.61784580  0.87167448    -0.76300
O1114       O  0.82307664  0.56024917  0.79719209    -0.69900
Al1115     Al  0.87835168  0.66495533  0.83077082     1.90100
O1116       O  0.80319761  0.55981713  0.88604444    -0.69000
O1117       O  0.74138164  0.56415728  0.77659544    -0.68800
O1118       O  0.71727494  0.55588050  0.86592256    -0.74500
O1119       O  0.71861991  0.61600945  0.79146802    -0.72700
O1120       O  0.80962187  0.63115359  0.83009980    -1.08800
O1121       O  0.80584020  0.69734093  0.77409299    -0.68000
C1122       C  0.85306571  0.72247419  0.76565845     1.02700
C1123       C  0.85040215  0.58061483  0.89512252     0.99100
Al1124     Al  0.77421621  0.56552985  0.83134295     1.55600
O1125       O  0.88377486  0.69801583  0.88210856    -0.72600
C1126       C  0.71429237  0.58261409  0.76834131     1.03300
C1127       C  0.86106783  0.59197335  0.77358844     0.98200
O1128       O  0.88254670  0.63694024  0.77942518    -0.77900
C1129       C  0.82203767  0.88383773  0.70845382    -0.08900
C1130       C  0.79182948  0.86871243  0.73912312    -0.10400
C1131       C  0.82104405  0.88341535  0.96320764    -0.08900
C1132       C  0.79143804  0.86814537  0.93203710    -0.10400
C1133       C  0.86571385  0.56131377  0.93320027    -0.08900
C1134       C  0.87959351  0.54779855  0.96655394    -0.10400
C1135       C  0.88036003  0.57690764  0.73939015    -0.08900
C1136       C  0.89504489  0.56390822  0.70972738    -0.10400
C1137       C  0.88585889  0.98879621  0.02034378    -0.12000
C1138       C  0.88837063  0.95760819  0.99448614    -0.27200
H1139       H  0.86504316  0.47430701  0.71840408     0.17000
H1140       H  0.91077582  0.97270026  0.96387899     0.17600
C1141       C  0.57464944  0.65140280  0.71930626    -0.08900
C1142       C  0.59014809  0.67895927  0.74886007    -0.10400
C1143       C  0.57096727  0.64817101  0.97421239    -0.08900
C1144       C  0.58604999  0.67659789  0.94137653    -0.10400
C1145       C  0.50072966  0.57996094  0.02500621    -0.12000
C1146       C  0.96348885  0.57269410  0.99538617    -0.27200
H1147       H  0.48959093  0.56006431  0.72436048     0.17000
H1148       H  0.97473560  0.59150024  0.96228096     0.17600
C1149       C  0.67778085  0.56450196  0.73218272    -0.08900
C1150       C  0.64862310  0.54946648  0.70064976    -0.10400
C1151       C  0.64702303  0.55371564  0.95450620    -0.08900
C1152       C  0.67606815  0.56666778  0.92361669    -0.10400
C1153       C  0.58769026  0.59241782  0.02146194    -0.13400
C1154       C  0.58296151  0.56073778  0.65854853    -0.27200
H1155       H  0.61467883  0.60145241  0.71599362     0.17000
H1156       H  0.55613062  0.55289840  0.96393009     0.17600
C1157       C  0.60178303  0.87239025  0.92306895    -0.08900
C1158       C  0.58621314  0.88465831  0.95231710    -0.10400
C1159       C  0.57466280  0.87478390  0.69724460    -0.08900
C1160       C  0.58767472  0.85999011  0.73052899    -0.10400
C1161       C  0.59738510  0.95175896  0.65860190    -0.12000
C1162       C  0.57849715  0.98115458  0.66063352    -0.27200
H1163       H  0.63909199  0.96851267  0.99352711     0.17000
H1164       H  0.53706482  0.46551612  0.66057201     0.17600
C1165       C  0.88495346  0.75848147  0.92108913    -0.08900
C1166       C  0.90125151  0.78662401  0.95091817    -0.10400
C1167       C  0.88431262  0.78345893  0.69411748    -0.08900
C1168       C  0.86931080  0.75616356  0.72723490    -0.10400
C1169       C  0.50853678  0.87681855  0.64355736    -0.12000
C1170       C  0.96930357  0.84345824  0.66975342    -0.27200
H1171       H  0.49959244  0.88871360  0.94454911     0.17000
H1172       H  0.97861557  0.83293090  0.70259163     0.17600
C1173       C  0.89265496  0.85161638  0.97810984    -0.12000
C1174       C  0.89068221  0.88014902  0.00786756    -0.27200
H1175       H  0.87472914  0.84909093  0.94538750     0.17000
H1176       H  0.91100787  0.88449417  0.70631261     0.17600
loop_ 
_geom_bond_atom_site_label_1 
_geom_bond_atom_site_label_2 
_geom_bond_distance 
_geom_bond_site_symmetry_2 
_ccdc_geom_bond_type 
C1           C89   1.464   1_556  S
C1          C284   1.485       .  S
C1           C92   1.522   1_556  S
C1          C291   1.522       .  S
C2           C80   1.462       .  S
C2          C179   1.479       .  S
C2          C181   1.509       .  S
C2          C189   1.532       .  S
C3           C72   1.478   1_556  S
C3          C269   1.466       .  S
C3           C76   1.519       .  S
C3          C378   1.513   1_545  S
C4           C65   1.486       .  S
C4          C161   1.457       .  S
C4           C67   1.520       .  S
C4           C75   1.502       .  S
C5           C56   1.467       .  S
C5          C156   1.479       .  S
C5           C68   1.517       .  S
C5          C353   1.523   1_545  S
C6           C53   1.474       .  S
C6          C149   1.485       .  S
C6           C60   1.530       .  S
C6           C96   1.532       .  S
O7           C22   1.263       .  A
O7          Al15   1.923       .  S
C8           O18   1.260       .  A
C8            O9   1.257       .  A
C8           C64   1.418       .  S
O9          Al11   1.877       .  S
O10          C12   1.263       .  A
O10         Al11   1.933       .  S
Al11         O19   1.933       .  S
Al11         O21   1.886       .  S
Al11         O20   1.789       .  S
C12          O25   1.258       .  A
C12          C52   1.443       .  S
O13          C23   1.262       .  A
O13         Al15   1.924       .  S
O14          C27   1.259       .  A
O14         Al24   1.907       .  S
Al15         O28   1.886       .  S
Al15         O25   1.897       .  S
Al15         O20   1.788       .  S
O16          C23   1.256       .  A
O16         Al24   1.892       .  S
O17          C26   1.257       .  A
O17         Al24   1.896       .  S
O18         Al24   1.907       .  S
O19          C26   1.263       .  A
O20         Al24   1.791       .  S
O21          C22   1.258       .  A
C22          C54   1.431       .  S
C23          C82   1.438       .  S
C26          C66   1.443       .  S
C27          O28   1.256       .  A
C27          C79   1.426       .  S
O29          C44   1.267       .  A
O29         Al37   1.935       .  S
C30          O40   1.266       .  A
C30          O31   1.254       .  A
C30          C74   1.426       .  S
O31         Al33   1.869       .  S
O32          C34   1.267       .  A
O32         Al33   1.948       .  S
Al33         O41   1.947       .  S
Al33         O43   1.861       .  S
Al33         O42   1.784       .  S
C34          O47   1.255       .  A
C34          C87   1.448       .  S
O35          C45   1.269       .  A
O35         Al37   1.941       .  S
O36          C49   1.264       .  A
O36         Al46   1.936       .  S
Al37         O50   1.886       .  S
Al37         O47   1.890       .  S
Al37         O42   1.781       .  S
O38          C45   1.253       .  A
O38         Al46   1.866       .  S
O39          C48   1.253       .  A
O39         Al46   1.871       .  S
O40         Al46   1.936       .  S
O41          C48   1.268       .  A
O42         Al46   1.786       .  S
O43          C44   1.252       .  A
C44          C90   1.424       .  S
C45          C55   1.429       .  S
C48          C71   1.432       .  S
C49          O50   1.254       .  A
C49          C57   1.439       .  S
C51         C202   1.485       .  S
C51          C52   1.212       .  T
C53          C54   1.205       .  T
C55          C56   1.204       .  T
C57          C58   1.209       .  T
C58         C201   1.479       .  S
C59         C299   1.523       .  S
C59          C60   1.349       .  D
C59         H453   1.086       .  S
C60          H62   1.088       .  S
H61         C549   1.086       .  S
C63         C200   1.457       .  S
C63          C64   1.197       .  T
C65          C66   1.211       .  T
C67         C656   1.337   1_455  D
C67         H167   1.088   1_455  S
C68         C655   1.337       .  D
C68          H70   1.088       .  S
H69         C263   1.088   1_655  S
C71          C72   1.206       .  T
C73         C101   1.466       .  S
C73          C74   1.202       .  T
C75         C174   1.348       .  D
C75         H175   1.086       .  S
C76         C271   1.348   1_556  D
C76         H274   1.088       .  S
H77         C271   1.086       .  S
H78         C174   1.088       .  S
C79          C80   1.202       .  T
C81         C198   1.479   1_554  S
C81          C82   1.209       .  T
C83         C198   1.509       .  S
C83          C84   1.347       .  D
C83         H281   1.090       .  S
C84         C297   1.513       .  S
C84         H380   1.087       .  S
H85         C181   1.090       .  S
H86         C378   1.087       .  S
C87          C88   1.214       .  T
C88          C99   1.485       .  S
C89          C90   1.201       .  T
C91         C198   1.532       .  S
C91         C680   1.341   1_456  D
C91         H289   1.088   1_455  S
C92         C679   1.341   1_554  D
C92          H94   1.088       .  S
H93         C189   1.088   1_655  S
C95          C99   1.522       .  S
C95          C96   1.354       .  D
C95          H97   1.086       .  S
C96         H196   1.088       .  S
H98         C292   1.088       .  S
C99         C187   1.464       .  S
C99         C190   1.522       .  S
C100        C178   1.462       .  S
C100        C277   1.479       .  S
C100        C279   1.509       .  S
C100        C287   1.532       .  S
C101        C170   1.478       .  S
C101        C174   1.519       .  S
C101        C476   1.513   1_545  S
C102        C259   1.457       .  S
C102        C163   1.486       .  S
C102        C165   1.520       .  S
C102        C173   1.502       .  S
C103        C154   1.467       .  S
C103        C254   1.479       .  S
C103        C451   1.523   1_545  S
C103        C166   1.517       .  S
C104        C247   1.485       .  S
C104        C151   1.474       .  S
C104        C158   1.530       .  S
C104        C194   1.532       .  S
O105        C120   1.263       .  A
O105       Al113   1.923       .  S
C106        O116   1.260       .  A
C106        O107   1.257       .  A
C106        C162   1.418       .  S
O107       Al109   1.877       .  S
O108        C110   1.263       .  A
O108       Al109   1.933       .  S
Al109       O117   1.933       .  S
Al109       O119   1.886       .  S
Al109       O118   1.789       .  S
C110        O123   1.258       .  A
C110        C150   1.443       .  S
O111        C121   1.262       .  A
O111       Al113   1.924       .  S
O112        C125   1.259       .  A
O112       Al122   1.907       .  S
Al113       O126   1.886       .  S
Al113       O123   1.897       .  S
Al113       O118   1.788       .  S
O114        C121   1.256       .  A
O114       Al122   1.892       .  S
O115        C124   1.257       .  A
O115       Al122   1.896       .  S
O116       Al122   1.907       .  S
O117        C124   1.263       .  A
O118       Al122   1.791       .  S
O119        C120   1.258       .  A
C120        C152   1.431       .  S
C121        C180   1.438       .  S
C124        C164   1.443       .  S
C125        O126   1.256       .  A
C125        C177   1.426       .  S
O127        C142   1.267       .  A
O127       Al135   1.935       .  S
C128        O138   1.266       .  A
C128        O129   1.254       .  A
C128        C172   1.426       .  S
O129       Al131   1.869       .  S
O130        C132   1.267       .  A
O130       Al131   1.948       .  S
Al131       O139   1.947       .  S
Al131       O141   1.861       .  S
Al131       O140   1.784       .  S
C132        O145   1.255       .  A
C132        C185   1.448       .  S
O133        C143   1.269       .  A
O133       Al135   1.941       .  S
O134        C147   1.264       .  A
O134       Al144   1.936       .  S
Al135       O148   1.886       .  S
Al135       O145   1.890       .  S
Al135       O140   1.781       .  S
O136        C143   1.253       .  A
O136       Al144   1.866       .  S
O137        C146   1.253       .  A
O137       Al144   1.871       .  S
O138       Al144   1.936       .  S
O139        C146   1.268       .  A
O140       Al144   1.786       .  S
O141        C142   1.252       .  A
C142        C188   1.424       .  S
C143        C153   1.429       .  S
C146        C169   1.432       .  S
C147        O148   1.254       .  A
C147        C155   1.439       .  S
C149        C150   1.212       .  T
C151        C152   1.205       .  T
C153        C154   1.204       .  T
C155        C156   1.209       .  T
C157        C397   1.523       .  S
C157        C158   1.349       .  D
C157        H551   1.086       .  S
C158        H160   1.088       .  S
H159        C353   1.086       .  S
C161        C162   1.197       .  T
C163        C164   1.211       .  T
C165        C754   1.337   1_455  D
C165        H265   1.088   1_455  S
C166        C753   1.337       .  D
C166        H168   1.088       .  S
C169        C170   1.206       .  T
C171        C199   1.466       .  S
C171        C172   1.202       .  T
C173        C272   1.348       .  D
C173        H273   1.086       .  S
H176        C272   1.088       .  S
C177        C178   1.202       .  T
C179        C180   1.209       .  T
C181        C182   1.347       .  D
C182        C395   1.513       .  S
C182        H478   1.087       .  S
H183        C279   1.090       .  S
H184        C476   1.087       .  S
C185        C186   1.214       .  T
C186        C197   1.485       .  S
C187        C188   1.201       .  T
C189        C778   1.341   1_455  D
C190        C777   1.341       .  D
C190        H192   1.088       .  S
H191        C287   1.088   1_655  S
C193        C197   1.522       .  S
C193        C194   1.354       .  D
C193        H195   1.086       .  S
C194        H294   1.088       .  S
C197        C285   1.464       .  S
C197        C288   1.522       .  S
C198        C276   1.462       .  S
C199        C268   1.478       .  S
C199        C272   1.519       .  S
C199        C574   1.513   1_545  S
C200        C261   1.486   1_554  S
C200        C263   1.520       .  S
C200        C271   1.502       .  S
C201        C252   1.467   1_554  S
C201        C549   1.523   1_545  S
C201        C264   1.517   1_554  S
C202        C249   1.474   1_554  S
C202        C256   1.530   1_554  S
C202        C292   1.532       .  S
O203        C218   1.263       .  A
O203       Al211   1.923       .  S
C204        O214   1.260       .  A
C204        O205   1.257       .  A
C204        C260   1.418       .  S
O205       Al207   1.877       .  S
O206        C208   1.263       .  A
O206       Al207   1.933       .  S
Al207       O215   1.933       .  S
Al207       O217   1.886       .  S
Al207       O216   1.789       .  S
C208        O221   1.258       .  A
C208        C248   1.443       .  S
O209        C219   1.262       .  A
O209       Al211   1.924       .  S
O210        C223   1.259       .  A
O210       Al220   1.907       .  S
Al211       O224   1.886       .  S
Al211       O221   1.897       .  S
Al211       O216   1.788       .  S
O212        C219   1.256       .  A
O212       Al220   1.892       .  S
O213        C222   1.257       .  A
O213       Al220   1.896       .  S
O214       Al220   1.907       .  S
O215        C222   1.263       .  A
O216       Al220   1.791       .  S
O217        C218   1.258       .  A
C218        C250   1.431       .  S
C219        C278   1.438       .  S
C222        C262   1.443       .  S
C223        O224   1.256       .  A
C223        C275   1.426       .  S
O225        C240   1.267       .  A
O225       Al233   1.935       .  S
C226        O236   1.266       .  A
C226        O227   1.254       .  A
C226        C270   1.426       .  S
O227       Al229   1.869       .  S
O228        C230   1.267       .  A
O228       Al229   1.948       .  S
Al229       O237   1.947       .  S
Al229       O239   1.861       .  S
Al229       O238   1.784       .  S
C230        O243   1.255       .  A
C230        C283   1.448       .  S
O231        C241   1.269       .  A
O231       Al233   1.941       .  S
O232        C245   1.264       .  A
O232       Al242   1.936       .  S
Al233       O246   1.886       .  S
Al233       O243   1.890       .  S
Al233       O238   1.781       .  S
O234        C241   1.253       .  A
O234       Al242   1.866       .  S
O235        C244   1.253       .  A
O235       Al242   1.871       .  S
O236       Al242   1.936       .  S
O237        C244   1.268       .  A
O238       Al242   1.786       .  S
O239        C240   1.252       .  A
C240        C286   1.424       .  S
C241        C251   1.429       .  S
C244        C267   1.432       .  S
C245        O246   1.254       .  A
C245        C253   1.439       .  S
C247        C248   1.212       .  T
C249        C250   1.205       .  T
C251        C252   1.204       .  T
C253        C254   1.209       .  T
C255        C495   1.523       .  S
C255        C256   1.349   1_554  D
C255        H355   1.086       .  S
C256        H258   1.088       .  S
H257        C451   1.086       .  S
C259        C260   1.197       .  T
C261        C262   1.211       .  T
C263        C852   1.337   1_454  D
C264        C851   1.337   1_556  D
C264        H266   1.088       .  S
C267        C268   1.206       .  T
C269        C270   1.202       .  T
C275        C276   1.202       .  T
C277        C278   1.209       .  T
C279        C280   1.347       .  D
C280        C493   1.513       .  S
C280        H576   1.087       .  S
H282        C574   1.087       .  S
C283        C284   1.214       .  T
C285        C286   1.201       .  T
C287        C876   1.341   1_455  D
C288        C875   1.341       .  D
C288        H290   1.088       .  S
C291        C292   1.354   1_556  D
C291        H293   1.086       .  S
C295        C578   1.485       .  S
C295        C383   1.464   1_556  S
C295        C386   1.522   1_556  S
C295        C585   1.522       .  S
C296        C374   1.462       .  S
C296        C473   1.479       .  S
C296        C475   1.509       .  S
C296        C483   1.532       .  S
C297        C366   1.478   1_556  S
C297        C563   1.466       .  S
C297        C370   1.519       .  S
C298        C455   1.457       .  S
C298        C359   1.486       .  S
C298        C361   1.520       .  S
C298        C369   1.502       .  S
C299        C350   1.467       .  S
C299        C450   1.479       .  S
C299        C362   1.517       .  S
C300        C443   1.485       .  S
C300        C347   1.474       .  S
C300        C354   1.530       .  S
C300        C390   1.532       .  S
O301        C316   1.263       .  A
O301       Al309   1.923       .  S
C302        O312   1.260       .  A
C302        O303   1.257       .  A
C302        C358   1.418       .  S
O303       Al305   1.877       .  S
O304        C306   1.263       .  A
O304       Al305   1.933       .  S
Al305       O313   1.933       .  S
Al305       O315   1.886       .  S
Al305       O314   1.789       .  S
C306        O319   1.258       .  A
C306        C346   1.443       .  S
O307        C317   1.262       .  A
O307       Al309   1.924       .  S
O308        C321   1.259       .  A
O308       Al318   1.907       .  S
Al309       O322   1.886       .  S
Al309       O319   1.897       .  S
Al309       O314   1.788       .  S
O310        C317   1.256       .  A
O310       Al318   1.892       .  S
O311        C320   1.257       .  A
O311       Al318   1.896       .  S
O312       Al318   1.907       .  S
O313        C320   1.263       .  A
O314       Al318   1.791       .  S
O315        C316   1.258       .  A
C316        C348   1.431       .  S
C317        C376   1.438       .  S
C320        C360   1.443       .  S
C321        O322   1.256       .  A
C321        C373   1.426       .  S
O323        C338   1.267       .  A
O323       Al331   1.935       .  S
C324        O334   1.266       .  A
C324        O325   1.254       .  A
C324        C368   1.426       .  S
O325       Al327   1.869       .  S
O326        C328   1.267       .  A
O326       Al327   1.948       .  S
Al327       O335   1.947       .  S
Al327       O337   1.861       .  S
Al327       O336   1.784       .  S
C328        O341   1.255       .  A
C328        C381   1.448       .  S
O329        C339   1.269       .  A
O329       Al331   1.941       .  S
O330        C343   1.264       .  A
O330       Al340   1.936       .  S
Al331       O344   1.886       .  S
Al331       O341   1.890       .  S
Al331       O336   1.781       .  S
O332        C339   1.253       .  A
O332       Al340   1.866       .  S
O333        C342   1.253       .  A
O333       Al340   1.871       .  S
O334       Al340   1.936       .  S
O335        C342   1.268       .  A
O336       Al340   1.786       .  S
O337        C338   1.252       .  A
C338        C384   1.424       .  S
C339        C349   1.429       .  S
C342        C365   1.432       .  S
C343        O344   1.254       .  A
C343        C351   1.439       .  S
C345        C496   1.485       .  S
C345        C346   1.212       .  T
C347        C348   1.205       .  T
C349        C350   1.204       .  T
C351        C352   1.209       .  T
C352        C495   1.479       .  S
C353        C354   1.349       .  D
C354        H356   1.088       .  S
C357        C494   1.457       .  S
C357        C358   1.197       .  T
C359        C360   1.211       .  T
C361        C950   1.337   1_455  D
C361        H461   1.088   1_455  S
C362        C949   1.337       .  D
C362        H364   1.088       .  S
H363        C557   1.088   1_655  S
C365        C366   1.206       .  T
C367        C395   1.466       .  S
C367        C368   1.202       .  T
C369        C468   1.348       .  D
C369        H469   1.086       .  S
C370        C565   1.348   1_556  D
C370        H568   1.088       .  S
H371        C565   1.086       .  S
H372        C468   1.088       .  S
C373        C374   1.202       .  T
C375        C492   1.479   1_554  S
C375        C376   1.209       .  T
C377        C492   1.509       .  S
C377        C378   1.347       .  D
C377        H575   1.090       .  S
H379        C475   1.090       .  S
C381        C382   1.214       .  T
C382        C393   1.485       .  S
C383        C384   1.201       .  T
C385        C492   1.532       .  S
C385        C974   1.341   1_456  D
C385        H583   1.088   1_455  S
C386        C973   1.341   1_554  D
C386        H388   1.088       .  S
H387        C483   1.088   1_655  S
C389        C393   1.522       .  S
C389        C390   1.354       .  D
C389        H391   1.086       .  S
C390        H490   1.088       .  S
H392        C586   1.088       .  S
C393        C481   1.464       .  S
C393        C484   1.522       .  S
C394        C472   1.462       .  S
C394        C571   1.479       .  S
C394        C573   1.509       .  S
C394        C581   1.532       .  S
C395        C464   1.478       .  S
C395        C468   1.519       .  S
C396        C553   1.457       .  S
C396        C457   1.486       .  S
C396        C459   1.520       .  S
C396        C467   1.502       .  S
C397        C448   1.467       .  S
C397        C548   1.479       .  S
C397        C460   1.517       .  S
C398        C541   1.485       .  S
C398        C445   1.474       .  S
C398        C452   1.530       .  S
C398        C488   1.532       .  S
O399        C414   1.263       .  A
O399       Al407   1.923       .  S
C400        O410   1.260       .  A
C400        O401   1.257       .  A
C400        C456   1.418       .  S
O401       Al403   1.877       .  S
O402        C404   1.263       .  A
O402       Al403   1.933       .  S
Al403       O411   1.933       .  S
Al403       O413   1.886       .  S
Al403       O412   1.789       .  S
C404        O417   1.258       .  A
C404        C444   1.443       .  S
O405        C415   1.262       .  A
O405       Al407   1.924       .  S
O406        C419   1.259       .  A
O406       Al416   1.907       .  S
Al407       O420   1.886       .  S
Al407       O417   1.897       .  S
Al407       O412   1.788       .  S
O408        C415   1.256       .  A
O408       Al416   1.892       .  S
O409        C418   1.257       .  A
O409       Al416   1.896       .  S
O410       Al416   1.907       .  S
O411        C418   1.263       .  A
O412       Al416   1.791       .  S
O413        C414   1.258       .  A
C414        C446   1.431       .  S
C415        C474   1.438       .  S
C418        C458   1.443       .  S
C419        O420   1.256       .  A
C419        C471   1.426       .  S
O421        C436   1.267       .  A
O421       Al429   1.935       .  S
C422        O432   1.266       .  A
C422        O423   1.254       .  A
C422        C466   1.426       .  S
O423       Al425   1.869       .  S
O424        C426   1.267       .  A
O424       Al425   1.948       .  S
Al425       O433   1.947       .  S
Al425       O435   1.861       .  S
Al425       O434   1.784       .  S
C426        O439   1.255       .  A
C426        C479   1.448       .  S
O427        C437   1.269       .  A
O427       Al429   1.941       .  S
O428        C441   1.264       .  A
O428       Al438   1.936       .  S
Al429       O442   1.886       .  S
Al429       O439   1.890       .  S
Al429       O434   1.781       .  S
O430        C437   1.253       .  A
O430       Al438   1.866       .  S
O431        C440   1.253       .  A
O431       Al438   1.871       .  S
O432       Al438   1.936       .  S
O433        C440   1.268       .  A
O434       Al438   1.786       .  S
O435        C436   1.252       .  A
C436        C482   1.424       .  S
C437        C447   1.429       .  S
C440        C463   1.432       .  S
C441        O442   1.254       .  A
C441        C449   1.439       .  S
C443        C444   1.212       .  T
C445        C446   1.205       .  T
C447        C448   1.204       .  T
C449        C450   1.209       .  T
C451        C452   1.349       .  D
C452        H454   1.088       .  S
C455        C456   1.197       .  T
C457        C458   1.211       .  T
C459       C1048   1.337   1_455  D
C459        H559   1.088   1_455  S
C460       C1047   1.337       .  D
C460        H462   1.088       .  S
C463        C464   1.206       .  T
C465        C493   1.466       .  S
C465        C466   1.202       .  T
C467        C566   1.348       .  D
C467        H567   1.086       .  S
H470        C566   1.088       .  S
C471        C472   1.202       .  T
C473        C474   1.209       .  T
C475        C476   1.347       .  D
H477        C573   1.090       .  S
C479        C480   1.214       .  T
C480        C491   1.485       .  S
C481        C482   1.201       .  T
C483       C1072   1.341   1_455  D
C484       C1071   1.341       .  D
C484        H486   1.088       .  S
H485        C581   1.088   1_655  S
C487        C491   1.522       .  S
C487        C488   1.354       .  D
C487        H489   1.086       .  S
C488        H588   1.088       .  S
C491        C579   1.464       .  S
C491        C582   1.522       .  S
C492        C570   1.462       .  S
C493        C562   1.478       .  S
C493        C566   1.519       .  S
C494        C555   1.486   1_554  S
C494        C557   1.520       .  S
C494        C565   1.502       .  S
C495        C546   1.467   1_554  S
C495        C558   1.517   1_554  S
C496        C543   1.474   1_554  S
C496        C550   1.530   1_554  S
C496        C586   1.532       .  S
O497        C512   1.263       .  A
O497       Al505   1.923       .  S
C498        O508   1.260       .  A
C498        O499   1.257       .  A
C498        C554   1.418       .  S
O499       Al501   1.877       .  S
O500        C502   1.263       .  A
O500       Al501   1.933       .  S
Al501       O509   1.933       .  S
Al501       O511   1.886       .  S
Al501       O510   1.789       .  S
C502        O515   1.258       .  A
C502        C542   1.443       .  S
O503        C513   1.262       .  A
O503       Al505   1.924       .  S
O504        C517   1.259       .  A
O504       Al514   1.907       .  S
Al505       O518   1.886       .  S
Al505       O515   1.897       .  S
Al505       O510   1.788       .  S
O506        C513   1.256       .  A
O506       Al514   1.892       .  S
O507        C516   1.257       .  A
O507       Al514   1.896       .  S
O508       Al514   1.907       .  S
O509        C516   1.263       .  A
O510       Al514   1.791       .  S
O511        C512   1.258       .  A
C512        C544   1.431       .  S
C513        C572   1.438       .  S
C516        C556   1.443       .  S
C517        O518   1.256       .  A
C517        C569   1.426       .  S
O519        C534   1.267       .  A
O519       Al527   1.935       .  S
C520        O530   1.266       .  A
C520        O521   1.254       .  A
C520        C564   1.426       .  S
O521       Al523   1.869       .  S
O522        C524   1.267       .  A
O522       Al523   1.948       .  S
Al523       O531   1.947       .  S
Al523       O533   1.861       .  S
Al523       O532   1.784       .  S
C524        O537   1.255       .  A
C524        C577   1.448       .  S
O525        C535   1.269       .  A
O525       Al527   1.941       .  S
O526        C539   1.264       .  A
O526       Al536   1.936       .  S
Al527       O540   1.886       .  S
Al527       O537   1.890       .  S
Al527       O532   1.781       .  S
O528        C535   1.253       .  A
O528       Al536   1.866       .  S
O529        C538   1.253       .  A
O529       Al536   1.871       .  S
O530       Al536   1.936       .  S
O531        C538   1.268       .  A
O532       Al536   1.786       .  S
O533        C534   1.252       .  A
C534        C580   1.424       .  S
C535        C545   1.429       .  S
C538        C561   1.432       .  S
C539        O540   1.254       .  A
C539        C547   1.439       .  S
C541        C542   1.212       .  T
C543        C544   1.205       .  T
C545        C546   1.204       .  T
C547        C548   1.209       .  T
C549        C550   1.349   1_554  D
C550        H552   1.088       .  S
C553        C554   1.197       .  T
C555        C556   1.211       .  T
C557       C1146   1.337   1_454  D
C558       C1145   1.337   1_556  D
C558        H560   1.088       .  S
C561        C562   1.206       .  T
C563        C564   1.202       .  T
C569        C570   1.202       .  T
C571        C572   1.209       .  T
C573        C574   1.347       .  D
C577        C578   1.214       .  T
C579        C580   1.201       .  T
C581       C1170   1.341   1_455  D
C582       C1169   1.341       .  D
C582        H584   1.088       .  S
C585        C586   1.354   1_556  D
C585        H587   1.086       .  S
C589        C872   1.485       .  S
C589        C677   1.464   1_556  S
C589        C680   1.522   1_556  S
C589        C879   1.522       .  S
C590        C668   1.462       .  S
C590        C767   1.479       .  S
C590        C769   1.509       .  S
C590        C777   1.532       .  S
C591        C660   1.478   1_556  S
C591        C857   1.466       .  S
C591        C664   1.519       .  S
C591        C966   1.513   1_545  S
C592        C749   1.457       .  S
C592        C653   1.486       .  S
C592        C655   1.520       .  S
C592        C663   1.502       .  S
C593        C644   1.467       .  S
C593        C744   1.479       .  S
C593        C941   1.523   1_545  S
C593        C656   1.517       .  S
C594        C737   1.485       .  S
C594        C641   1.474       .  S
C594        C648   1.530       .  S
C594        C684   1.532       .  S
O595        C610   1.263       .  A
O595       Al603   1.923       .  S
C596        O606   1.260       .  A
C596        O597   1.257       .  A
C596        C652   1.418       .  S
O597       Al599   1.877       .  S
O598        C600   1.263       .  A
O598       Al599   1.933       .  S
Al599       O607   1.933       .  S
Al599       O609   1.886       .  S
Al599       O608   1.789       .  S
C600        O613   1.258       .  A
C600        C640   1.443       .  S
O601        C611   1.262       .  A
O601       Al603   1.924       .  S
O602        C615   1.259       .  A
O602       Al612   1.907       .  S
Al603       O616   1.886       .  S
Al603       O613   1.897       .  S
Al603       O608   1.788       .  S
O604        C611   1.256       .  A
O604       Al612   1.892       .  S
O605        C614   1.257       .  A
O605       Al612   1.896       .  S
O606       Al612   1.907       .  S
O607        C614   1.263       .  A
O608       Al612   1.791       .  S
O609        C610   1.258       .  A
C610        C642   1.431       .  S
C611        C670   1.438       .  S
C614        C654   1.443       .  S
C615        O616   1.256       .  A
C615        C667   1.426       .  S
O617        C632   1.267       .  A
O617       Al625   1.935       .  S
C618        O628   1.266       .  A
C618        O619   1.254       .  A
C618        C662   1.426       .  S
O619       Al621   1.869       .  S
O620        C622   1.267       .  A
O620       Al621   1.948       .  S
Al621       O629   1.947       .  S
Al621       O631   1.861       .  S
Al621       O630   1.784       .  S
C622        O635   1.255       .  A
C622        C675   1.448       .  S
O623        C633   1.269       .  A
O623       Al625   1.941       .  S
O624        C637   1.264       .  A
O624       Al634   1.936       .  S
Al625       O638   1.886       .  S
Al625       O635   1.890       .  S
Al625       O630   1.781       .  S
O626        C633   1.253       .  A
O626       Al634   1.866       .  S
O627        C636   1.253       .  A
O627       Al634   1.871       .  S
O628       Al634   1.936       .  S
O629        C636   1.268       .  A
O630       Al634   1.786       .  S
O631        C632   1.252       .  A
C632        C678   1.424       .  S
C633        C643   1.429       .  S
C636        C659   1.432       .  S
C637        O638   1.254       .  A
C637        C645   1.439       .  S
C639        C790   1.485       .  S
C639        C640   1.212       .  T
C641        C642   1.205       .  T
C643        C644   1.204       .  T
C645        C646   1.209       .  T
C646        C789   1.479       .  S
C647        C887   1.523       .  S
C647        C648   1.349       .  D
C647       H1041   1.086       .  S
C648        H650   1.088       .  S
H649       C1137   1.086       .  S
C651        C788   1.457       .  S
C651        C652   1.197       .  T
C653        C654   1.211       .  T
C655        H755   1.088       .  S
C656        H658   1.088       .  S
H657        C851   1.088       .  S
C659        C660   1.206       .  T
C661        C689   1.466       .  S
C661        C662   1.202       .  T
C663        C762   1.348       .  D
C663        H763   1.086       .  S
C664        C859   1.348   1_556  D
C664        H862   1.088       .  S
H665        C859   1.086       .  S
H666        C762   1.088       .  S
C667        C668   1.202       .  T
C669        C786   1.479   1_554  S
C669        C670   1.209       .  T
C671        C786   1.509       .  S
C671        C672   1.347       .  D
C671        H869   1.090       .  S
C672        C885   1.513       .  S
C672        H968   1.087       .  S
H673        C769   1.090       .  S
H674        C966   1.087       .  S
C675        C676   1.214       .  T
C676        C687   1.485       .  S
C677        C678   1.201       .  T
C679        C786   1.532       .  S
C679        H877   1.088       .  S
C680        H682   1.088       .  S
H681        C777   1.088       .  S
C683        C687   1.522       .  S
C683        C684   1.354       .  D
C683        H685   1.086       .  S
C684        H784   1.088       .  S
H686        C880   1.088       .  S
C687        C775   1.464       .  S
C687        C778   1.522       .  S
C688        C766   1.462       .  S
C688        C865   1.479       .  S
C688        C867   1.509       .  S
C688        C875   1.532       .  S
C689        C758   1.478       .  S
C689        C762   1.519       .  S
C689       C1064   1.513   1_545  S
C690        C847   1.457       .  S
C690        C751   1.486       .  S
C690        C753   1.520       .  S
C690        C761   1.502       .  S
C691        C742   1.467       .  S
C691        C842   1.479       .  S
C691       C1039   1.523   1_545  S
C691        C754   1.517       .  S
C692        C835   1.485       .  S
C692        C739   1.474       .  S
C692        C746   1.530       .  S
C692        C782   1.532       .  S
O693        C708   1.263       .  A
O693       Al701   1.923       .  S
C694        O704   1.260       .  A
C694        O695   1.257       .  A
C694        C750   1.418       .  S
O695       Al697   1.877       .  S
O696        C698   1.263       .  A
O696       Al697   1.933       .  S
Al697       O705   1.933       .  S
Al697       O707   1.886       .  S
Al697       O706   1.789       .  S
C698        O711   1.258       .  A
C698        C738   1.443       .  S
O699        C709   1.262       .  A
O699       Al701   1.924       .  S
O700        C713   1.259       .  A
O700       Al710   1.907       .  S
Al701       O714   1.886       .  S
Al701       O711   1.897       .  S
Al701       O706   1.788       .  S
O702        C709   1.256       .  A
O702       Al710   1.892       .  S
O703        C712   1.257       .  A
O703       Al710   1.896       .  S
O704       Al710   1.907       .  S
O705        C712   1.263       .  A
O706       Al710   1.791       .  S
O707        C708   1.258       .  A
C708        C740   1.431       .  S
C709        C768   1.438       .  S
C712        C752   1.443       .  S
C713        O714   1.256       .  A
C713        C765   1.426       .  S
O715        C730   1.267       .  A
O715       Al723   1.935       .  S
C716        O726   1.266       .  A
C716        O717   1.254       .  A
C716        C760   1.426       .  S
O717       Al719   1.869       .  S
O718        C720   1.267       .  A
O718       Al719   1.948       .  S
Al719       O727   1.947       .  S
Al719       O729   1.861       .  S
Al719       O728   1.784       .  S
C720        O733   1.255       .  A
C720        C773   1.448       .  S
O721        C731   1.269       .  A
O721       Al723   1.941       .  S
O722        C735   1.264       .  A
O722       Al732   1.936       .  S
Al723       O736   1.886       .  S
Al723       O733   1.890       .  S
Al723       O728   1.781       .  S
O724        C731   1.253       .  A
O724       Al732   1.866       .  S
O725        C734   1.253       .  A
O725       Al732   1.871       .  S
O726       Al732   1.936       .  S
O727        C734   1.268       .  A
O728       Al732   1.786       .  S
O729        C730   1.252       .  A
C730        C776   1.424       .  S
C731        C741   1.429       .  S
C734        C757   1.432       .  S
C735        O736   1.254       .  A
C735        C743   1.439       .  S
C737        C738   1.212       .  T
C739        C740   1.205       .  T
C741        C742   1.204       .  T
C743        C744   1.209       .  T
C745        C985   1.523       .  S
C745        C746   1.349       .  D
C745       H1139   1.086       .  S
C746        H748   1.088       .  S
H747        C941   1.086       .  S
C749        C750   1.197       .  T
C751        C752   1.211       .  T
C753        H853   1.088       .  S
C754        H756   1.088       .  S
C757        C758   1.206       .  T
C759        C787   1.466       .  S
C759        C760   1.202       .  T
C761        C860   1.348       .  D
C761        H861   1.086       .  S
H764        C860   1.088       .  S
C765        C766   1.202       .  T
C767        C768   1.209       .  T
C769        C770   1.347       .  D
C770        C983   1.513       .  S
C770       H1066   1.087       .  S
H771        C867   1.090       .  S
H772       C1064   1.087       .  S
C773        C774   1.214       .  T
C774        C785   1.485       .  S
C775        C776   1.201       .  T
C778        H780   1.088       .  S
H779        C875   1.088       .  S
C781        C785   1.522       .  S
C781        C782   1.354       .  D
C781        H783   1.086       .  S
C782        H882   1.088       .  S
C785        C873   1.464       .  S
C785        C876   1.522       .  S
C786        C864   1.462       .  S
C787        C856   1.478       .  S
C787        C860   1.519       .  S
C787       C1162   1.513   1_545  S
C788        C849   1.486   1_554  S
C788        C851   1.520       .  S
C788        C859   1.502       .  S
C789        C840   1.467   1_554  S
C789       C1137   1.523   1_545  S
C789        C852   1.517   1_554  S
C790        C837   1.474   1_554  S
C790        C844   1.530   1_554  S
C790        C880   1.532       .  S
O791        C806   1.263       .  A
O791       Al799   1.923       .  S
C792        O802   1.260       .  A
C792        O793   1.257       .  A
C792        C848   1.418       .  S
O793       Al795   1.877       .  S
O794        C796   1.263       .  A
O794       Al795   1.933       .  S
Al795       O803   1.933       .  S
Al795       O805   1.886       .  S
Al795       O804   1.789       .  S
C796        O809   1.258       .  A
C796        C836   1.443       .  S
O797        C807   1.262       .  A
O797       Al799   1.924       .  S
O798        C811   1.259       .  A
O798       Al808   1.907       .  S
Al799       O812   1.886       .  S
Al799       O809   1.897       .  S
Al799       O804   1.788       .  S
O800        C807   1.256       .  A
O800       Al808   1.892       .  S
O801        C810   1.257       .  A
O801       Al808   1.896       .  S
O802       Al808   1.907       .  S
O803        C810   1.263       .  A
O804       Al808   1.791       .  S
O805        C806   1.258       .  A
C806        C838   1.431       .  S
C807        C866   1.438       .  S
C810        C850   1.443       .  S
C811        O812   1.256       .  A
C811        C863   1.426       .  S
O813        C828   1.267       .  A
O813       Al821   1.935       .  S
C814        O824   1.266       .  A
C814        O815   1.254       .  A
C814        C858   1.426       .  S
O815       Al817   1.869       .  S
O816        C818   1.267       .  A
O816       Al817   1.948       .  S
Al817       O825   1.947       .  S
Al817       O827   1.861       .  S
Al817       O826   1.784       .  S
C818        O831   1.255       .  A
C818        C871   1.448       .  S
O819        C829   1.269       .  A
O819       Al821   1.941       .  S
O820        C833   1.264       .  A
O820       Al830   1.936       .  S
Al821       O834   1.886       .  S
Al821       O831   1.890       .  S
Al821       O826   1.781       .  S
O822        C829   1.253       .  A
O822       Al830   1.866       .  S
O823        C832   1.253       .  A
O823       Al830   1.871       .  S
O824       Al830   1.936       .  S
O825        C832   1.268       .  A
O826       Al830   1.786       .  S
O827        C828   1.252       .  A
C828        C874   1.424       .  S
C829        C839   1.429       .  S
C832        C855   1.432       .  S
C833        O834   1.254       .  A
C833        C841   1.439       .  S
C835        C836   1.212       .  T
C837        C838   1.205       .  T
C839        C840   1.204       .  T
C841        C842   1.209       .  T
C843       C1083   1.523       .  S
C843        C844   1.349   1_554  D
C843        H943   1.086       .  S
C844        H846   1.088       .  S
H845       C1039   1.086       .  S
C847        C848   1.197       .  T
C849        C850   1.211       .  T
C852        H854   1.088       .  S
C855        C856   1.206       .  T
C857        C858   1.202       .  T
C863        C864   1.202       .  T
C865        C866   1.209       .  T
C867        C868   1.347       .  D
C868       C1081   1.513       .  S
C868       H1164   1.087       .  S
H870       C1162   1.087       .  S
C871        C872   1.214       .  T
C873        C874   1.201       .  T
C876        H878   1.088       .  S
C879        C880   1.354   1_556  D
C879        H881   1.086       .  S
C883       C1166   1.485       .  S
C883        C971   1.464   1_556  S
C883        C974   1.522   1_556  S
C883       C1173   1.522       .  S
C884        C962   1.462       .  S
C884       C1061   1.479       .  S
C884       C1063   1.509       .  S
C884       C1071   1.532       .  S
C885        C954   1.478   1_556  S
C885       C1151   1.466       .  S
C885        C958   1.519       .  S
C886       C1043   1.457       .  S
C886        C947   1.486       .  S
C886        C949   1.520       .  S
C886        C957   1.502       .  S
C887        C938   1.467       .  S
C887       C1038   1.479       .  S
C887        C950   1.517       .  S
C888       C1031   1.485       .  S
C888        C935   1.474       .  S
C888        C942   1.530       .  S
C888        C978   1.532       .  S
O889        C904   1.263       .  A
O889       Al897   1.923       .  S
C890        O900   1.260       .  A
C890        O891   1.257       .  A
C890        C946   1.418       .  S
O891       Al893   1.877       .  S
O892        C894   1.263       .  A
O892       Al893   1.933       .  S
Al893       O901   1.933       .  S
Al893       O903   1.886       .  S
Al893       O902   1.789       .  S
C894        O907   1.258       .  A
C894        C934   1.443       .  S
O895        C905   1.262       .  A
O895       Al897   1.924       .  S
O896        C909   1.259       .  A
O896       Al906   1.907       .  S
Al897       O910   1.886       .  S
Al897       O907   1.897       .  S
Al897       O902   1.788       .  S
O898        C905   1.256       .  A
O898       Al906   1.892       .  S
O899        C908   1.257       .  A
O899       Al906   1.896       .  S
O900       Al906   1.907       .  S
O901        C908   1.263       .  A
O902       Al906   1.791       .  S
O903        C904   1.258       .  A
C904        C936   1.431       .  S
C905        C964   1.438       .  S
C908        C948   1.443       .  S
C909        O910   1.256       .  A
C909        C961   1.426       .  S
O911        C926   1.267       .  A
O911       Al919   1.935       .  S
C912        O922   1.266       .  A
C912        O913   1.254       .  A
C912        C956   1.426       .  S
O913       Al915   1.869       .  S
O914        C916   1.267       .  A
O914       Al915   1.948       .  S
Al915       O923   1.947       .  S
Al915       O925   1.861       .  S
Al915       O924   1.784       .  S
C916        O929   1.255       .  A
C916        C969   1.448       .  S
O917        C927   1.269       .  A
O917       Al919   1.941       .  S
O918        C931   1.264       .  A
O918       Al928   1.936       .  S
Al919       O932   1.886       .  S
Al919       O929   1.890       .  S
Al919       O924   1.781       .  S
O920        C927   1.253       .  A
O920       Al928   1.866       .  S
O921        C930   1.253       .  A
O921       Al928   1.871       .  S
O922       Al928   1.936       .  S
O923        C930   1.268       .  A
O924       Al928   1.786       .  S
O925        C926   1.252       .  A
C926        C972   1.424       .  S
C927        C937   1.429       .  S
C930        C953   1.432       .  S
C931        O932   1.254       .  A
C931        C939   1.439       .  S
C933       C1084   1.485       .  S
C933        C934   1.212       .  T
C935        C936   1.205       .  T
C937        C938   1.204       .  T
C939        C940   1.209       .  T
C940       C1083   1.479       .  S
C941        C942   1.349       .  D
C942        H944   1.088       .  S
C945       C1082   1.457       .  S
C945        C946   1.197       .  T
C947        C948   1.211       .  T
C949       H1049   1.088       .  S
C950        H952   1.088       .  S
H951       C1145   1.088       .  S
C953        C954   1.206       .  T
C955        C983   1.466       .  S
C955        C956   1.202       .  T
C957       C1056   1.348       .  D
C957       H1057   1.086       .  S
C958       C1153   1.348   1_556  D
C958       H1156   1.088       .  S
H959       C1153   1.086       .  S
H960       C1056   1.088       .  S
C961        C962   1.202       .  T
C963       C1080   1.479   1_554  S
C963        C964   1.209       .  T
C965       C1080   1.509       .  S
C965        C966   1.347       .  D
C965       H1163   1.090       .  S
H967       C1063   1.090       .  S
C969        C970   1.214       .  T
C970        C981   1.485       .  S
C971        C972   1.201       .  T
C973       C1080   1.532       .  S
C973       H1171   1.088       .  S
C974        H976   1.088       .  S
H975       C1071   1.088       .  S
C977        C981   1.522       .  S
C977        C978   1.354       .  D
C977        H979   1.086       .  S
C978       H1078   1.088       .  S
H980       C1174   1.088       .  S
C981       C1069   1.464       .  S
C981       C1072   1.522       .  S
C982       C1060   1.462       .  S
C982       C1159   1.479       .  S
C982       C1161   1.509       .  S
C982       C1169   1.532       .  S
C983       C1052   1.478       .  S
C983       C1056   1.519       .  S
C984       C1141   1.457       .  S
C984       C1045   1.486       .  S
C984       C1047   1.520       .  S
C984       C1055   1.502       .  S
C985       C1036   1.467       .  S
C985       C1136   1.479       .  S
C985       C1048   1.517       .  S
C986       C1129   1.485       .  S
C986       C1033   1.474       .  S
C986       C1040   1.530       .  S
C986       C1076   1.532       .  S
O987       C1002   1.263       .  A
O987       Al995   1.923       .  S
C988        O998   1.260       .  A
C988        O989   1.257       .  A
C988       C1044   1.418       .  S
O989       Al991   1.877       .  S
O990        C992   1.263       .  A
O990       Al991   1.933       .  S
Al991       O999   1.933       .  S
Al991      O1001   1.886       .  S
Al991      O1000   1.789       .  S
C992       O1005   1.258       .  A
C992       C1032   1.443       .  S
O993       C1003   1.262       .  A
O993       Al995   1.924       .  S
O994       C1007   1.259       .  A
O994      Al1004   1.907       .  S
Al995      O1008   1.886       .  S
Al995      O1005   1.897       .  S
Al995      O1000   1.788       .  S
O996       C1003   1.256       .  A
O996      Al1004   1.892       .  S
O997       C1006   1.257       .  A
O997      Al1004   1.896       .  S
O998      Al1004   1.907       .  S
O999       C1006   1.263       .  A
O1000     Al1004   1.791       .  S
O1001      C1002   1.258       .  A
C1002      C1034   1.431       .  S
C1003      C1062   1.438       .  S
C1006      C1046   1.443       .  S
C1007      O1008   1.256       .  A
C1007      C1059   1.426       .  S
O1009      C1024   1.267       .  A
O1009     Al1017   1.935       .  S
C1010      O1020   1.266       .  A
C1010      O1011   1.254       .  A
C1010      C1054   1.426       .  S
O1011     Al1013   1.869       .  S
O1012      C1014   1.267       .  A
O1012     Al1013   1.948       .  S
Al1013     O1021   1.947       .  S
Al1013     O1023   1.861       .  S
Al1013     O1022   1.784       .  S
C1014      O1027   1.255       .  A
C1014      C1067   1.448       .  S
O1015      C1025   1.269       .  A
O1015     Al1017   1.941       .  S
O1016      C1029   1.264       .  A
O1016     Al1026   1.936       .  S
Al1017     O1030   1.886       .  S
Al1017     O1027   1.890       .  S
Al1017     O1022   1.781       .  S
O1018      C1025   1.253       .  A
O1018     Al1026   1.866       .  S
O1019      C1028   1.253       .  A
O1019     Al1026   1.871       .  S
O1020     Al1026   1.936       .  S
O1021      C1028   1.268       .  A
O1022     Al1026   1.786       .  S
O1023      C1024   1.252       .  A
C1024      C1070   1.424       .  S
C1025      C1035   1.429       .  S
C1028      C1051   1.432       .  S
C1029      O1030   1.254       .  A
C1029      C1037   1.439       .  S
C1031      C1032   1.212       .  T
C1033      C1034   1.205       .  T
C1035      C1036   1.204       .  T
C1037      C1038   1.209       .  T
C1039      C1040   1.349       .  D
C1040      H1042   1.088       .  S
C1043      C1044   1.197       .  T
C1045      C1046   1.211       .  T
C1047      H1147   1.088       .  S
C1048      H1050   1.088       .  S
C1051      C1052   1.206       .  T
C1053      C1081   1.466       .  S
C1053      C1054   1.202       .  T
C1055      C1154   1.348       .  D
C1055      H1155   1.086       .  S
H1058      C1154   1.088       .  S
C1059      C1060   1.202       .  T
C1061      C1062   1.209       .  T
C1063      C1064   1.347       .  D
H1065      C1161   1.090       .  S
C1067      C1068   1.214       .  T
C1068      C1079   1.485       .  S
C1069      C1070   1.201       .  T
C1072      H1074   1.088       .  S
H1073      C1169   1.088       .  S
C1075      C1079   1.522       .  S
C1075      C1076   1.354       .  D
C1075      H1077   1.086       .  S
C1076      H1176   1.088       .  S
C1079      C1167   1.464       .  S
C1079      C1170   1.522       .  S
C1080      C1158   1.462       .  S
C1081      C1150   1.478       .  S
C1081      C1154   1.519       .  S
C1082      C1143   1.486   1_554  S
C1082      C1145   1.520       .  S
C1082      C1153   1.502       .  S
C1083      C1134   1.467   1_554  S
C1083      C1146   1.517   1_554  S
C1084      C1131   1.474   1_554  S
C1084      C1138   1.530   1_554  S
C1084      C1174   1.532       .  S
O1085      C1100   1.263       .  A
O1085     Al1093   1.923       .  S
C1086      O1096   1.260       .  A
C1086      O1087   1.257       .  A
C1086      C1142   1.418       .  S
O1087     Al1089   1.877       .  S
O1088      C1090   1.263       .  A
O1088     Al1089   1.933       .  S
Al1089     O1097   1.933       .  S
Al1089     O1099   1.886       .  S
Al1089     O1098   1.789       .  S
C1090      O1103   1.258       .  A
C1090      C1130   1.443       .  S
O1091      C1101   1.262       .  A
O1091     Al1093   1.924       .  S
O1092      C1105   1.259       .  A
O1092     Al1102   1.907       .  S
Al1093     O1106   1.886       .  S
Al1093     O1103   1.897       .  S
Al1093     O1098   1.788       .  S
O1094      C1101   1.256       .  A
O1094     Al1102   1.892       .  S
O1095      C1104   1.257       .  A
O1095     Al1102   1.896       .  S
O1096     Al1102   1.907       .  S
O1097      C1104   1.263       .  A
O1098     Al1102   1.791       .  S
O1099      C1100   1.258       .  A
C1100      C1132   1.431       .  S
C1101      C1160   1.438       .  S
C1104      C1144   1.443       .  S
C1105      O1106   1.256       .  A
C1105      C1157   1.426       .  S
O1107      C1122   1.267       .  A
O1107     Al1115   1.935       .  S
C1108      O1118   1.266       .  A
C1108      O1109   1.254       .  A
C1108      C1152   1.426       .  S
O1109     Al1111   1.869       .  S
O1110      C1112   1.267       .  A
O1110     Al1111   1.948       .  S
Al1111     O1119   1.947       .  S
Al1111     O1121   1.861       .  S
Al1111     O1120   1.784       .  S
C1112      O1125   1.255       .  A
C1112      C1165   1.448       .  S
O1113      C1123   1.269       .  A
O1113     Al1115   1.941       .  S
O1114      C1127   1.264       .  A
O1114     Al1124   1.936       .  S
Al1115     O1128   1.886       .  S
Al1115     O1125   1.890       .  S
Al1115     O1120   1.781       .  S
O1116      C1123   1.253       .  A
O1116     Al1124   1.866       .  S
O1117      C1126   1.253       .  A
O1117     Al1124   1.871       .  S
O1118     Al1124   1.936       .  S
O1119      C1126   1.268       .  A
O1120     Al1124   1.786       .  S
O1121      C1122   1.252       .  A
C1122      C1168   1.424       .  S
C1123      C1133   1.429       .  S
C1126      C1149   1.432       .  S
C1127      O1128   1.254       .  A
C1127      C1135   1.439       .  S
C1129      C1130   1.212       .  T
C1131      C1132   1.205       .  T
C1133      C1134   1.204       .  T
C1135      C1136   1.209       .  T
C1137      C1138   1.349   1_554  D
C1138      H1140   1.088       .  S
C1141      C1142   1.197       .  T
C1143      C1144   1.211       .  T
C1146      H1148   1.088       .  S
C1149      C1150   1.206       .  T
C1151      C1152   1.202       .  T
C1157      C1158   1.202       .  T
C1159      C1160   1.209       .  T
C1161      C1162   1.347       .  D
C1165      C1166   1.214       .  T
C1167      C1168   1.201       .  T
C1170      H1172   1.088       .  S
C1173      C1174   1.354   1_556  D
C1173      H1175   1.086       .  S
